@<TRIPOS>MOLECULE
../1EDN/3STEPMIN_17-21_NOBACKBONE.pdb
 26 23 0 0 0
SMALL
GASTEIGER

@<TRIPOS>ATOM
      1  CB        -6.9230   -0.4370    0.2770 C.3    17  LEU17       0.0000
      2  CG        -6.4950   -1.8450   -0.1910 C.3    17  LEU17       0.0000
      3  CD1       -6.5150   -2.8060    0.9980 C.3    17  LEU17       0.0000
      4  CD2       -7.4310   -2.4140   -1.2600 C.3    17  LEU17       0.0000
      5  CB        -9.0510    3.1310    2.7840 C.3    18  ASP18       0.1258
      6  CG       -10.5470    3.4340    2.8500 C.2    18  ASP18       0.3654
      7  OD1      -11.3300    2.4930    2.5610 O.co2  18  ASP18      -0.2456
      8  OD2      -10.9050    4.5930    3.1470 O.co2  18  ASP18      -0.2456
      9  CB        -4.3960    5.7260    0.0740 C.3    19  ILE19       0.0000
     10  CG2       -3.6150    6.9530   -0.4300 C.3    19  ILE19       0.0000
     11  CG1       -3.7730    5.2100    1.3920 C.3    19  ILE19       0.0000
     12  CD1       -3.8620    6.1700    2.5820 C.3    19  ILE19       0.0000
     13  CB        -6.0900    6.2460   -4.5940 C.3    20  ILE20       0.0000
     14  CG2       -6.7980    6.2490   -5.9680 C.3    20  ILE20       0.0000
     15  CG1       -5.7140    7.6970   -4.2070 C.3    20  ILE20       0.0000
     16  CD1       -4.7810    8.4150   -5.1910 C.3    20  ILE20       0.0000
     17  CB        -9.7020    1.6830   -3.5450 C.3    21  TRP21       0.0327
     18  CG       -10.4970    2.2370   -2.3850 C.ar   21  TRP21      -0.0013
     19  CD1      -10.6860    1.5470   -1.2340 C.ar   21  TRP21       0.0946
     20  NE1      -11.3350    2.3340   -0.3040 N.ar   21  TRP21      -0.2442
     21  CE2      -11.5720    3.5950   -0.7990 C.ar   21  TRP21       0.0810
     22  CZ2      -12.0950    4.7480   -0.2000 C.ar   21  TRP21       0.0191
     23  CH2      -12.2340    5.9130   -0.9670 C.ar   21  TRP21       0.0015
     24  CZ3      -11.8800    5.8920   -2.3260 C.ar   21  TRP21       0.0001
     25  CE3      -11.3480    4.7280   -2.9100 C.ar   21  TRP21       0.0012
     26  CD2      -11.1270    3.5500   -2.1550 C.ar   21  TRP21       0.0152
@<TRIPOS>BOND
     1    14    13    1
     2    16    15    1
     3    13    15    1
     4    17    18    1
     5    25    24   ar
     6    25    26   ar
     7    18    26   ar
     8    18    19   ar
     9    24    23   ar
    10    26    21   ar
    11     4     2    1
    12    19    20   ar
    13    23    22   ar
    14    21    20   ar
    15    21    22   ar
    16    10     9    1
    17     2     1    1
    18     2     3    1
    19     9    11    1
    20    11    12    1
    21     7     6   ar
    22     5     6    1
    23     6     8   ar
@<TRIPOS>MOLECULE
../BosentanConformers.pdb
 39 42 0 0 0
SMALL
GASTEIGER

@<TRIPOS>ATOM
      1  S1       -12.0125    0.7551   -4.5067 S.O2    1  LGD1        0.0943
      2  O2       -12.0982   -0.2296   -5.6624 O.2     1  LGD1       -0.1483
      3  O3       -13.2375    1.2002   -3.7564 O.2     1  LGD1       -0.1483
      4  O4       -10.6214    4.6849   -4.3410 O.3     1  LGD1       -0.4427
      5  O5        -7.9445    5.4633   -4.6688 O.3     1  LGD1       -0.4552
      6  O6        -8.8563    3.4789   -2.3826 O.3     1  LGD1       -0.4684
      7  O7        -7.4644    8.3742   -5.2284 O.3     1  LGD1       -0.2162
      8  N8       -11.5160    2.2157   -5.1868 N.pl3   1  LGD1       -0.0737
      9  N9        -9.3025    1.7104   -5.9467 N.ar    1  LGD1       -0.2027
     10  N10       -7.4800    3.3358   -5.7282 N.ar    1  LGD1       -0.1866
     11  N11       -7.6992    0.1874   -7.5806 N.ar    1  LGD1       -0.2224
     12  N12       -5.7349    1.3153   -6.5260 N.ar    1  LGD1       -0.2224
     13  C13       -7.8185   -0.7603   -0.3259 C.3     1  LGD1        0.0189
     14  C14       -8.9251   -0.4562   -1.3552 C.ar    1  LGD1       -0.0227
     15  C15       -7.4877   -2.2848   -0.1876 C.3     1  LGD1        0.0044
     16  C16       -6.5395   -0.1012   -0.6954 C.3     1  LGD1        0.0044
     17  C17       -8.0758   -0.3212    1.1547 C.3     1  LGD1        0.0044
     18  C18       -9.8878    0.5434   -1.1018 C.ar    1  LGD1       -0.0029
     19  C19       -8.8356   -0.9860   -2.6770 C.ar    1  LGD1       -0.0029
     20  C20      -10.7524    0.3699   -3.3463 C.ar    1  LGD1        0.1271
     21  C21      -10.8450    0.9045   -2.0828 C.ar    1  LGD1        0.0199
     22  C22       -9.7432   -0.5621   -3.6587 C.ar    1  LGD1        0.0199
     23  C23      -10.1831    2.5721   -5.3542 C.ar    1  LGD1        0.2125
     24  C24       -9.7126    3.8374   -5.0211 C.ar    1  LGD1        0.2327
     25  C25       -8.3932    4.2613   -5.2625 C.ar    1  LGD1        0.2651
     26  C26       -8.0223    2.1476   -6.1529 C.ar    1  LGD1        0.2028
     27  C27      -10.9593    4.5461   -2.9713 C.ar    1  LGD1        0.1793
     28  C28       -7.0731    1.1423   -6.7830 C.ar    1  LGD1        0.1990
     29  C29       -6.7846    6.0954   -5.3409 C.3     1  LGD1        0.2426
     30  C30      -10.1276    3.9804   -2.0521 C.ar    1  LGD1        0.1730
     31  C31      -12.0911    5.2474   -2.6053 C.ar    1  LGD1        0.0406
     32  C32      -10.5545    4.0286   -0.7609 C.ar    1  LGD1        0.0401
     33  C33       -6.5008    7.4764   -4.6731 C.3     1  LGD1        0.2292
     34  C34      -12.4914    5.3206   -1.3200 C.ar    1  LGD1        0.0033
     35  C35      -11.7052    4.6494   -0.3789 C.ar    1  LGD1        0.0033
     36  C36       -6.8761   -0.6028   -8.2624 C.ar    1  LGD1        0.1023
     37  C37       -4.9175    0.5590   -7.2576 C.ar    1  LGD1        0.1023
     38  C38       -5.5060   -0.4401   -8.0800 C.ar    1  LGD1        0.0414
     39  C39       -7.7898    3.3963   -1.3551 C.3     1  LGD1        0.2526
@<TRIPOS>BOND
     1    33    29    1
     2    33     7    1
     3    29     5    1
     4    39     6    1
     5    36    11   ar
     6    36    38   ar
     7     5    25    1
     8    11    28   ar
     9    10    25   ar
    10    10    26   ar
    11    25    24   ar
    12     6    30    1
    13    38    37   ar
    14    28    26    1
    15    28    12   ar
    16    26     9   ar
    17    24     4    1
    18    24    23   ar
    19     4    27    1
    20    30    27   ar
    21    30    32   ar
    22    37    12   ar
    23     9    23   ar
    24    23     8    1
    25    27    31   ar
    26    32    35   ar
    27     8     1    1
    28    31    34   ar
    29    35    34   ar
    30     2     1    2
    31     1     3    2
    32     1    20    1
    33    21    20   ar
    34    21    18   ar
    35    17    13    1
    36    20    22   ar
    37    18    14   ar
    38    22    19   ar
    39    14    19   ar
    40    14    13    1
    41    13    16    1
    42    13    15    1
@<TRIPOS>MOLECULE
../1EDN/3STEPMIN_17-21.pdb
 47 48 0 0 0
SMALL
GASTEIGER

@<TRIPOS>ATOM
      1  N         -5.4290    0.8830   -1.1740 N.3    17  LEU17      -0.1231
      2  CA        -6.8230    0.6710   -0.7980 C.3    17  LEU17       0.1693
      3  CB        -6.9230   -0.4370    0.2770 C.3    17  LEU17       0.0284
      4  CG        -6.4950   -1.8450   -0.1910 C.3    17  LEU17       0.0019
      5  CD1       -6.5150   -2.8060    0.9980 C.3    17  LEU17       0.0001
      6  CD2       -7.4310   -2.4140   -1.2600 C.3    17  LEU17       0.0001
      7  C         -7.3990    2.0370   -0.3760 C.2    17  LEU17       0.2592
      8  O         -7.4670    2.9330   -1.2040 O.2    17  LEU17      -0.2718
      9  N         -7.7380    2.2560    0.8970 N.am   18  ASP18      -0.1960
     10  CA        -8.5130    3.4280    1.3730 C.3    18  ASP18       0.1840
     11  CB        -9.0510    3.1310    2.7840 C.3    18  ASP18       0.1450
     12  CG       -10.5470    3.4340    2.8500 C.2    18  ASP18       0.3671
     13  OD1      -11.3300    2.4930    2.5610 O.co2  18  ASP18      -0.2456
     14  OD2      -10.9050    4.5930    3.1470 O.co2  18  ASP18      -0.2456
     15  C         -7.8270    4.8120    1.2910 C.2    18  ASP18       0.2622
     16  O         -8.3890    5.8210    1.7350 O.2    18  ASP18      -0.2715
     17  N         -6.6250    4.8510    0.7010 N.am   19  ILE19      -0.1963
     18  CA        -5.9180    6.0210    0.1680 C.3    19  ILE19       0.1727
     19  CB        -4.3960    5.7260    0.0740 C.3    19  ILE19       0.0290
     20  CG2       -3.6150    6.9530   -0.4300 C.3    19  ILE19       0.0023
     21  CG1       -3.7730    5.2100    1.3920 C.3    19  ILE19       0.0022
     22  CD1       -3.8620    6.1700    2.5820 C.3    19  ILE19       0.0001
     23  C         -6.4970    6.4050   -1.2110 C.2    19  ILE19       0.2616
     24  O         -7.0070    7.5130   -1.3720 O.2    19  ILE19      -0.2715
     25  N         -6.3950    5.4980   -2.1940 N.am   20  ILE20      -0.1963
     26  CA        -6.9990    5.5490   -3.5400 C.3    20  ILE20       0.1727
     27  CB        -6.0900    6.2460   -4.5940 C.3    20  ILE20       0.0290
     28  CG2       -6.7980    6.2490   -5.9680 C.3    20  ILE20       0.0023
     29  CG1       -5.7140    7.6970   -4.2070 C.3    20  ILE20       0.0022
     30  CD1       -4.7810    8.4150   -5.1910 C.3    20  ILE20       0.0001
     31  C         -7.3180    4.1070   -3.9880 C.2    20  ILE20       0.2617
     32  O         -6.4020    3.3070   -4.2100 O.2    20  ILE20      -0.2715
     33  N         -8.6100    3.8210   -4.1620 N.am   21  TRP21      -0.1938
     34  CA        -9.2240    2.5950   -4.7020 C.3    21  TRP21       0.2021
     35  CB        -9.7020    1.6830   -3.5450 C.3    21  TRP21       0.0612
     36  CG       -10.4970    2.2370   -2.3850 C.ar   21  TRP21       0.0007
     37  CD1      -10.6860    1.5470   -1.2340 C.ar   21  TRP21       0.0946
     38  NE1      -11.3350    2.3340   -0.3040 N.ar   21  TRP21      -0.2442
     39  CE2      -11.5720    3.5950   -0.7990 C.ar   21  TRP21       0.0810
     40  CZ2      -12.0950    4.7480   -0.2000 C.ar   21  TRP21       0.0191
     41  CH2      -12.2340    5.9130   -0.9670 C.ar   21  TRP21       0.0015
     42  CZ3      -11.8800    5.8920   -2.3260 C.ar   21  TRP21       0.0001
     43  CE3      -11.3480    4.7280   -2.9100 C.ar   21  TRP21       0.0012
     44  CD2      -11.1270    3.5500   -2.1550 C.ar   21  TRP21       0.0152
     45  C        -10.3230    2.8760   -5.7330 C.2    21  TRP21       0.3845
     46  O        -11.0800    1.9620   -6.0950 O.co2  21  TRP21      -0.2437
     47  OXT      -10.4270    4.0430   -6.2080 O.co2  21  TRP21      -0.2437
@<TRIPOS>BOND
     1    47    45   ar
     2    46    45   ar
     3    28    27    1
     4    45    34    1
     5    30    29    1
     6    34    33    1
     7    34    35    1
     8    27    29    1
     9    27    26    1
    10    32    31    2
    11    33    31   am
    12    31    26    1
    13    35    36    1
    14    26    25    1
    15    43    42   ar
    16    43    44   ar
    17    36    44   ar
    18    36    37   ar
    19    42    41   ar
    20    25    23   am
    21    44    39   ar
    22    24    23    2
    23     6     4    1
    24    37    38   ar
    25    23    18    1
    26     8     7    2
    27     1     2    1
    28    41    40   ar
    29    39    38   ar
    30    39    40   ar
    31     2     7    1
    32     2     3    1
    33    20    19    1
    34     7     9   am
    35     4     3    1
    36     4     5    1
    37    19    18    1
    38    19    21    1
    39    18    17    1
    40    17    15   am
    41     9    10    1
    42    15    10    1
    43    15    16    2
    44    10    11    1
    45    21    22    1
    46    13    12   ar
    47    11    12    1
    48    12    14   ar
