@<TRIPOS>MOLECULE
../1EDN/PCA3_17-21_NOBACKBONE.pdb
 26 23 0 0 0
SMALL
GASTEIGER

@<TRIPOS>ATOM
      1  CB        -5.7360   -1.8160   -1.1010 C.3    17  LEU17       0.0000
      2  CG        -6.9950   -2.5690   -1.5730 C.3    17  LEU17       0.0000
      3  CD1       -6.7530   -3.1800   -3.0080 C.3    17  LEU17       0.0000
      4  CD2       -7.2580   -3.7400   -0.6960 C.3    17  LEU17       0.0000
      5  CB        -9.1090    1.3410    0.3760 C.3    18  ASP18       0.1258
      6  CG       -10.1470    2.2990    0.9520 C.2    18  ASP18       0.3654
      7  OD1      -11.0720    2.5310    0.1500 O.co2  18  ASP18      -0.2456
      8  OD2      -10.1960    2.6850    2.1610 O.co2  18  ASP18      -0.2456
      9  CB        -5.3140    3.8890    3.0670 C.3    19  ILE19       0.0000
     10  CG2       -4.6600    5.0630    3.8540 C.3    19  ILE19       0.0000
     11  CG1       -6.1440    2.9790    3.9890 C.3    19  ILE19       0.0000
     12  CD1       -5.5170    2.2940    5.2130 C.3    19  ILE19       0.0000
     13  CB        -2.4460    5.7340   -1.0120 C.3    20  ILE20       0.0000
     14  CG2       -2.3030    7.0110   -0.1100 C.3    20  ILE20       0.0000
     15  CG1       -1.4300    4.6170   -0.6100 C.3    20  ILE20       0.0000
     16  CD1        0.0800    4.9990   -0.7110 C.3    20  ILE20       0.0000
     17  CB        -6.2680    3.7450   -4.8170 C.3    21  TRP21       0.0327
     18  CG        -6.5090    2.9660   -6.0890 C.ar   21  TRP21      -0.0013
     19  CD1       -7.0550    3.4090   -7.2190 C.ar   21  TRP21       0.0946
     20  NE1       -7.1560    2.4190   -8.1260 N.ar   21  TRP21      -0.2442
     21  CE2       -6.6880    1.2600   -7.6470 C.ar   21  TRP21       0.0810
     22  CZ2       -6.5320   -0.1050   -8.0600 C.ar   21  TRP21       0.0191
     23  CH2       -5.9630   -1.0770   -7.2340 C.ar   21  TRP21       0.0015
     24  CZ3       -5.4330   -0.7150   -5.9030 C.ar   21  TRP21       0.0001
     25  CE3       -5.5290    0.6400   -5.5430 C.ar   21  TRP21       0.0012
     26  CD2       -6.2440    1.5830   -6.3190 C.ar   21  TRP21       0.0152
@<TRIPOS>BOND
     1    20    21   ar
     2    20    19   ar
     3    22    21   ar
     4    22    23   ar
     5    21    26   ar
     6    23    24   ar
     7    19    18   ar
     8    26    18   ar
     9    26    25   ar
    10    18    17    1
    11    24    25   ar
    12     3     2    1
    13     2     1    1
    14     2     4    1
    15    13    15    1
    16    13    14    1
    17    16    15    1
    18     7     6   ar
    19     5     6    1
    20     6     8   ar
    21     9    10    1
    22     9    11    1
    23    11    12    1
@<TRIPOS>MOLECULE
../BosentanConformers.pdb
 39 42 0 0 0
SMALL
GASTEIGER

@<TRIPOS>ATOM
      1  S1        -0.2629    0.7193   -5.6728 S.O2    1  LGD1        0.0943
      2  O2         0.9916   -0.1513   -5.4233 O.2     1  LGD1       -0.1483
      3  O3        -0.5112    1.3331   -7.0095 O.2     1  LGD1       -0.1483
      4  O4        -4.1465   -1.3898   -5.5309 O.3     1  LGD1       -0.4427
      5  O5        -5.4151   -2.1682   -3.0882 O.3     1  LGD1       -0.4552
      6  O6        -4.4053    1.2983   -4.3629 O.3     1  LGD1       -0.4684
      7  O7        -8.2200   -1.6226   -2.5132 O.3     1  LGD1       -0.2162
      8  N8        -1.4974   -0.4198   -5.5481 N.pl3   1  LGD1       -0.0737
      9  N9        -1.3709   -0.8840   -3.1561 N.ar    1  LGD1       -0.2027
     10  N10       -3.3795   -1.5405   -1.9592 N.ar    1  LGD1       -0.1866
     11  N11       -1.3840    0.3101   -0.2052 N.ar    1  LGD1       -0.2224
     12  N12       -0.7065   -2.0598   -0.2531 N.ar    1  LGD1       -0.2224
     13  C13       -1.0049    4.8374   -1.1261 C.3     1  LGD1        0.0189
     14  C14       -0.8362    3.8230   -2.2658 C.ar    1  LGD1       -0.0227
     15  C15       -2.4032    5.5062   -1.0753 C.3     1  LGD1        0.0044
     16  C16       -0.0385    6.0259   -1.2194 C.3     1  LGD1        0.0044
     17  C17       -0.8292    4.1150    0.2206 C.3     1  LGD1        0.0044
     18  C18        0.2640    2.9762   -2.3798 C.ar    1  LGD1       -0.0029
     19  C19       -1.7935    3.7224   -3.3224 C.ar    1  LGD1       -0.0029
     20  C20       -0.5306    1.9469   -4.4248 C.ar    1  LGD1        0.1271
     21  C21        0.4640    2.1223   -3.4362 C.ar    1  LGD1        0.0199
     22  C22       -1.6080    2.8474   -4.4304 C.ar    1  LGD1        0.0199
     23  C23       -2.0538   -0.8634   -4.3485 C.ar    1  LGD1        0.2125
     24  C24       -3.4115   -1.3065   -4.3301 C.ar    1  LGD1        0.2327
     25  C25       -4.0779   -1.6902   -3.1298 C.ar    1  LGD1        0.2651
     26  C26       -2.0634   -1.1810   -2.0503 C.ar    1  LGD1        0.2028
     27  C27       -5.0448   -0.4256   -5.9041 C.ar    1  LGD1        0.1793
     28  C28       -1.3291   -0.9730   -0.7277 C.ar    1  LGD1        0.1990
     29  C29       -6.0417   -2.3996   -1.8117 C.3     1  LGD1        0.2426
     30  C30       -5.1743    0.8767   -5.4122 C.ar    1  LGD1        0.1730
     31  C31       -5.8437   -0.8706   -6.9903 C.ar    1  LGD1        0.0406
     32  C32       -6.0478    1.7491   -6.0893 C.ar    1  LGD1        0.0401
     33  C33       -7.5452   -2.7831   -1.9053 C.3     1  LGD1        0.2292
     34  C34       -6.6466   -0.0489   -7.6760 C.ar    1  LGD1        0.0033
     35  C35       -6.7745    1.2813   -7.2401 C.ar    1  LGD1        0.0033
     36  C36       -0.8565    0.4079    1.0741 C.ar    1  LGD1        0.1023
     37  C37       -0.1026   -1.9347    0.9755 C.ar    1  LGD1        0.1023
     38  C38       -0.0990   -0.6784    1.6001 C.ar    1  LGD1        0.0414
     39  C39       -5.1496    2.0005   -3.3062 C.3     1  LGD1        0.2526
@<TRIPOS>BOND
     1    33    29    1
     2    33     7    1
     3    29     5    1
     4    39     6    1
     5    36    11   ar
     6    36    38   ar
     7     5    25    1
     8    11    28   ar
     9    10    25   ar
    10    10    26   ar
    11    25    24   ar
    12     6    30    1
    13    38    37   ar
    14    28    26    1
    15    28    12   ar
    16    26     9   ar
    17    24     4    1
    18    24    23   ar
    19     4    27    1
    20    30    27   ar
    21    30    32   ar
    22    37    12   ar
    23     9    23   ar
    24    23     8    1
    25    27    31   ar
    26    32    35   ar
    27     8     1    1
    28    31    34   ar
    29    35    34   ar
    30     2     1    2
    31     1     3    2
    32     1    20    1
    33    21    20   ar
    34    21    18   ar
    35    17    13    1
    36    20    22   ar
    37    18    14   ar
    38    22    19   ar
    39    14    19   ar
    40    14    13    1
    41    13    16    1
    42    13    15    1
@<TRIPOS>MOLECULE
../1EDN/PCA3_17-21.pdb
 47 48 0 0 0
SMALL
GASTEIGER

@<TRIPOS>ATOM
      1  N         -4.2370    0.0490   -1.5930 N.3    17  LEU17      -0.1231
      2  CA        -5.5250   -0.5610   -1.9200 C.3    17  LEU17       0.1693
      3  CB        -5.7360   -1.8160   -1.1010 C.3    17  LEU17       0.0284
      4  CG        -6.9950   -2.5690   -1.5730 C.3    17  LEU17       0.0019
      5  CD1       -6.7530   -3.1800   -3.0080 C.3    17  LEU17       0.0001
      6  CD2       -7.2580   -3.7400   -0.6960 C.3    17  LEU17       0.0001
      7  C         -6.6810    0.4320   -1.9250 C.2    17  LEU17       0.2592
      8  O         -7.3270    0.6200   -2.9560 O.2    17  LEU17      -0.2718
      9  N         -6.9500    1.1080   -0.7900 N.am   18  ASP18      -0.1960
     10  CA        -8.0880    2.0070   -0.5710 C.3    18  ASP18       0.1840
     11  CB        -9.1090    1.3410    0.3760 C.3    18  ASP18       0.1450
     12  CG       -10.1470    2.2990    0.9520 C.2    18  ASP18       0.3671
     13  OD1      -11.0720    2.5310    0.1500 O.co2  18  ASP18      -0.2456
     14  OD2      -10.1960    2.6850    2.1610 O.co2  18  ASP18      -0.2456
     15  C         -7.6280    3.3500    0.0060 C.2    18  ASP18       0.2622
     16  O         -7.9950    4.4650   -0.3580 O.2    18  ASP18      -0.2715
     17  N         -6.8140    3.2050    1.0390 N.am   19  ILE19      -0.1963
     18  CA        -6.1800    4.3790    1.8160 C.3    19  ILE19       0.1727
     19  CB        -5.3140    3.8890    3.0670 C.3    19  ILE19       0.0290
     20  CG2       -4.6600    5.0630    3.8540 C.3    19  ILE19       0.0023
     21  CG1       -6.1440    2.9790    3.9890 C.3    19  ILE19       0.0022
     22  CD1       -5.5170    2.2940    5.2130 C.3    19  ILE19       0.0001
     23  C         -5.2670    5.2520    0.8640 C.2    19  ILE19       0.2616
     24  O         -5.3920    6.4650    0.9090 O.2    19  ILE19      -0.2715
     25  N         -4.4890    4.6060    0.0020 N.am   20  ILE20      -0.1963
     26  CA        -3.9690    5.2910   -1.1850 C.3    20  ILE20       0.1727
     27  CB        -2.4460    5.7340   -1.0120 C.3    20  ILE20       0.0290
     28  CG2       -2.3030    7.0110   -0.1100 C.3    20  ILE20       0.0023
     29  CG1       -1.4300    4.6170   -0.6100 C.3    20  ILE20       0.0022
     30  CD1        0.0800    4.9990   -0.7110 C.3    20  ILE20       0.0001
     31  C         -4.1660    4.3690   -2.4130 C.2    20  ILE20       0.2617
     32  O         -3.9200    3.1710   -2.5010 O.2    20  ILE20      -0.2715
     33  N         -4.6410    5.0460   -3.5090 N.am   21  TRP21      -0.1938
     34  CA        -4.8980    4.4430   -4.8120 C.3    21  TRP21       0.2021
     35  CB        -6.2680    3.7450   -4.8170 C.3    21  TRP21       0.0612
     36  CG        -6.5090    2.9660   -6.0890 C.ar   21  TRP21       0.0007
     37  CD1       -7.0550    3.4090   -7.2190 C.ar   21  TRP21       0.0946
     38  NE1       -7.1560    2.4190   -8.1260 N.ar   21  TRP21      -0.2442
     39  CE2       -6.6880    1.2600   -7.6470 C.ar   21  TRP21       0.0810
     40  CZ2       -6.5320   -0.1050   -8.0600 C.ar   21  TRP21       0.0191
     41  CH2       -5.9630   -1.0770   -7.2340 C.ar   21  TRP21       0.0015
     42  CZ3       -5.4330   -0.7150   -5.9030 C.ar   21  TRP21       0.0001
     43  CE3       -5.5290    0.6400   -5.5430 C.ar   21  TRP21       0.0012
     44  CD2       -6.2440    1.5830   -6.3190 C.ar   21  TRP21       0.0152
     45  C         -4.7460    5.5030   -5.9410 C.2    21  TRP21       0.3845
     46  O         -5.6740    6.3580   -6.0770 O.co2  21  TRP21      -0.2437
     47  OXT       -3.7150    5.4030   -6.6310 O.co2  21  TRP21      -0.2437
@<TRIPOS>BOND
     1    38    39   ar
     2    38    37   ar
     3    40    39   ar
     4    40    41   ar
     5    39    44   ar
     6    41    42   ar
     7    37    36   ar
     8    47    45   ar
     9    44    36   ar
    10    44    43   ar
    11    36    35    1
    12    46    45   ar
    13    45    34    1
    14    42    43   ar
    15    35    34    1
    16    34    33    1
    17    33    31   am
    18     5     4    1
    19     8     7    2
    20    32    31    2
    21    31    26    1
    22     7     2    1
    23     7     9   am
    24     2     1    1
    25     2     3    1
    26     4     3    1
    27     4     6    1
    28    26    27    1
    29    26    25    1
    30    27    29    1
    31    27    28    1
    32     9    10    1
    33    30    29    1
    34    10    15    1
    35    10    11    1
    36    16    15    2
    37    25    23   am
    38    15    17   am
    39    13    12   ar
    40    11    12    1
    41    23    24    2
    42    23    18    1
    43    12    14   ar
    44    17    18    1
    45    18    19    1
    46    19    20    1
    47    19    21    1
    48    21    22    1
