@<TRIPOS>MOLECULE
../1EDN/XRAY_17-21_NOBACKBONE.pdb
 26 23 0 0 0
SMALL
GASTEIGER

@<TRIPOS>ATOM
      1  CB         5.6570  -21.0170   -0.8850 C.3    17  LEU17       0.0000
      2  CG         5.4050  -22.5400   -0.8470 C.3    17  LEU17       0.0000
      3  CD1        6.1110  -23.2140    0.3150 C.3    17  LEU17       0.0000
      4  CD2        3.9240  -22.7940   -0.7690 C.3    17  LEU17       0.0000
      5  CB         3.8720  -17.2370    1.5730 C.3    18  ASP18       0.0476
      6  CG         2.4440  -17.7210    1.8880 C.2    18  ASP18       0.0507
      7  OD1        1.8320  -18.4410    1.0660 O.co2  18  ASP18      -0.5492
      8  OD2        1.9260  -17.3730    2.9700 O.co2  18  ASP18      -0.5492
      9  CB         7.9140  -14.3690   -1.8400 C.3    19  ILE19       0.0000
     10  CG1        8.8760  -14.8240   -0.7490 C.3    19  ILE19       0.0000
     11  CG2        8.2810  -12.9320   -2.2380 C.3    19  ILE19       0.0000
     12  CD1        9.3280  -13.7050    0.1860 C.3    19  ILE19       0.0000
     13  CB         5.8140  -13.8870   -5.9550 C.3    20  ILE20       0.0000
     14  CG1        5.9530  -12.3980   -5.6400 C.3    20  ILE20       0.0000
     15  CG2        5.1640  -14.0490   -7.3150 C.3    20  ILE20       0.0000
     16  CD1        6.8340  -11.6390   -6.6010 C.3    20  ILE20       0.0000
     17  CB         2.6690  -18.5180   -5.3120 C.3    21  TRP21       0.0327
     18  CG         1.5690  -17.9980   -4.3600 C.ar   21  TRP21      -0.0013
     19  CD1        0.7990  -18.7930   -3.5490 C.ar   21  TRP21       0.0946
     20  CD2        1.2480  -16.6350   -3.9890 C.ar   21  TRP21       0.0152
     21  CE2        0.3020  -16.7070   -2.9250 C.ar   21  TRP21       0.0810
     22  CE3        1.6680  -15.3700   -4.4360 C.ar   21  TRP21       0.0012
     23  NE1        0.0520  -18.0350   -2.6840 N.ar   21  TRP21      -0.2442
     24  CZ2       -0.2230  -15.5590   -2.2950 C.ar   21  TRP21       0.0191
     25  CZ3        1.1420  -14.2140   -3.8060 C.ar   21  TRP21       0.0001
     26  CH2        0.2070  -14.3240   -2.7450 C.ar   21  TRP21       0.0015
@<TRIPOS>BOND
     1    15    13    1
     2    16    14    1
     3    13    14    1
     4    17    18    1
     5    22    20   ar
     6    22    25   ar
     7    18    20   ar
     8    18    19   ar
     9    20    21   ar
    10    25    26   ar
    11    19    23   ar
    12    21    23   ar
    13    21    24   ar
    14    26    24   ar
    15    11     9    1
    16     9    10    1
    17     1     2    1
    18     2     4    1
    19     2     3    1
    20    10    12    1
    21     7     6   ar
    22     5     6    1
    23     6     8   ar
@<TRIPOS>MOLECULE
../BosentanConformers.pdb
 39 42 0 0 0
SMALL
GASTEIGER

@<TRIPOS>ATOM
      1  S1         1.1451   -9.9939   -2.8030 S.O2    1  LGD1        0.0943
      2  O2         1.5313   -8.7950   -2.0220 O.2     1  LGD1       -0.1483
      3  O3        -0.1856  -10.0922   -3.5552 O.2     1  LGD1       -0.1483
      4  O4         0.6822  -13.7592   -1.0421 O.3     1  LGD1       -0.4427
      5  O5         2.7265  -15.1902    0.2553 O.3     1  LGD1       -0.4552
      6  O6        -0.3738  -16.3102   -0.5176 O.3     1  LGD1       -0.4684
      7  O7         3.2767  -18.1042    0.0394 O.3     1  LGD1       -0.2162
      8  N8         0.9625  -11.1903   -1.6346 N.pl3   1  LGD1       -0.0737
      9  N9         3.1228  -11.1568   -0.5732 N.ar    1  LGD1       -0.2027
     10  N10        4.0633  -13.2319    0.2384 N.ar    1  LGD1       -0.1866
     11  N11        5.7703  -11.4100    1.7544 N.ar    1  LGD1       -0.2224
     12  N12        6.0292  -10.3707   -0.4157 N.ar    1  LGD1       -0.2224
     13  C13        5.7485  -12.7349   -5.7309 C.3     1  LGD1        0.0189
     14  C14        4.5298  -12.0491   -5.0231 C.ar    1  LGD1       -0.0227
     15  C15        5.3696  -13.5867   -6.9804 C.3     1  LGD1        0.0044
     16  C16        6.7101  -11.6922   -6.3072 C.3     1  LGD1        0.0044
     17  C17        6.6225  -13.5854   -4.7172 C.3     1  LGD1        0.0044
     18  C18        4.7877  -11.2555   -3.9316 C.ar    1  LGD1       -0.0029
     19  C19        3.1760  -12.0755   -5.4977 C.ar    1  LGD1       -0.0029
     20  C20        2.4914  -10.5937   -3.7940 C.ar    1  LGD1        0.1271
     21  C21        3.7825  -10.4416   -3.3435 C.ar    1  LGD1        0.0199
     22  C22        2.1363  -11.3533   -4.8949 C.ar    1  LGD1        0.0199
     23  C23        2.0606  -11.8105   -1.0438 C.ar    1  LGD1        0.2125
     24  C24        1.8671  -13.1609   -0.7524 C.ar    1  LGD1        0.2327
     25  C25        2.9356  -13.8496   -0.0934 C.ar    1  LGD1        0.2651
     26  C26        4.1509  -11.9209    0.0410 C.ar    1  LGD1        0.2028
     27  C27        0.5504  -14.7236   -2.0646 C.ar    1  LGD1        0.1793
     28  C28        5.4709  -11.2478    0.4293 C.ar    1  LGD1        0.1990
     29  C29        3.8609  -15.8963    0.8825 C.3     1  LGD1        0.2426
     30  C30        0.0294  -16.0054   -1.8968 C.ar    1  LGD1        0.1730
     31  C31        1.1194  -14.4939   -3.2951 C.ar    1  LGD1        0.0406
     32  C32       -0.0091  -16.9426   -2.9507 C.ar    1  LGD1        0.0401
     33  C33        3.4160  -17.3393    1.2316 C.3     1  LGD1        0.2292
     34  C34        1.1148  -15.3972   -4.3739 C.ar    1  LGD1        0.0033
     35  C35        0.6171  -16.6711   -4.2138 C.ar    1  LGD1        0.0033
     36  C36        6.8117  -10.7523    2.2556 C.ar    1  LGD1        0.1023
     37  C37        6.9563   -9.5336    0.1501 C.ar    1  LGD1        0.1023
     38  C38        7.4535   -9.8271    1.3883 C.ar    1  LGD1        0.0414
     39  C39       -0.4639  -17.6846   -0.0358 C.3     1  LGD1        0.2526
@<TRIPOS>BOND
     1    33    29    1
     2    33     7    1
     3    29     5    1
     4    39     6    1
     5    36    11   ar
     6    36    38   ar
     7     5    25    1
     8    11    28   ar
     9    10    25   ar
    10    10    26   ar
    11    25    24   ar
    12     6    30    1
    13    38    37   ar
    14    28    26    1
    15    28    12   ar
    16    26     9   ar
    17    24     4    1
    18    24    23   ar
    19     4    27    1
    20    30    27   ar
    21    30    32   ar
    22    37    12   ar
    23     9    23   ar
    24    23     8    1
    25    27    31   ar
    26    32    35   ar
    27     8     1    1
    28    31    34   ar
    29    35    34   ar
    30     2     1    2
    31     1     3    2
    32     1    20    1
    33    21    20   ar
    34    21    18   ar
    35    17    13    1
    36    20    22   ar
    37    18    14   ar
    38    22    19   ar
    39    14    19   ar
    40    14    13    1
    41    13    16    1
    42    13    15    1
@<TRIPOS>MOLECULE
../1EDN/XRAY_17-21.pdb
 47 48 0 0 0
SMALL
GASTEIGER

@<TRIPOS>ATOM
      1  N          6.4500  -19.7300   -2.8460 N.3    17  LEU17      -0.1231
      2  CA         5.2640  -20.1680   -2.1160 C.3    17  LEU17       0.1693
      3  C          4.7010  -18.8060   -1.6720 C.2    17  LEU17       0.2592
      4  O          4.3760  -17.9800   -2.5270 O.2    17  LEU17      -0.2718
      5  CB         5.6570  -21.0170   -0.8850 C.3    17  LEU17       0.0284
      6  CG         5.4050  -22.5400   -0.8470 C.3    17  LEU17       0.0019
      7  CD1        6.1110  -23.2140    0.3150 C.3    17  LEU17       0.0001
      8  CD2        3.9240  -22.7940   -0.7690 C.3    17  LEU17       0.0001
      9  N          4.7270  -18.4910   -0.3800 N.am   18  ASP18      -0.1962
     10  CA         4.1720  -17.2010    0.0630 C.3    18  ASP18       0.1783
     11  C          4.7750  -15.8130   -0.3500 C.2    18  ASP18       0.2620
     12  O          4.1570  -14.7710   -0.0750 O.2    18  ASP18      -0.2715
     13  CB         3.8720  -17.2370    1.5730 C.3    18  ASP18       0.0728
     14  CG         2.4440  -17.7210    1.8880 C.2    18  ASP18       0.0526
     15  OD1        1.8320  -18.4410    1.0660 O.co2  18  ASP18      -0.5491
     16  OD2        1.9260  -17.3730    2.9700 O.co2  18  ASP18      -0.5491
     17  N          5.9570  -15.7420   -0.9630 N.am   19  ILE19      -0.1963
     18  CA         6.4450  -14.4030   -1.3510 C.3    19  ILE19       0.1727
     19  C          5.5760  -13.9960   -2.5290 C.2    19  ILE19       0.2616
     20  O          4.8370  -13.0080   -2.4770 O.2    19  ILE19      -0.2715
     21  CB         7.9140  -14.3690   -1.8400 C.3    19  ILE19       0.0290
     22  CG1        8.8760  -14.8240   -0.7490 C.3    19  ILE19       0.0022
     23  CG2        8.2810  -12.9320   -2.2380 C.3    19  ILE19       0.0023
     24  CD1        9.3280  -13.7050    0.1860 C.3    19  ILE19       0.0001
     25  N          5.7170  -14.7750   -3.5990 N.am   20  ILE20      -0.1963
     26  CA         4.9770  -14.6140   -4.8450 C.3    20  ILE20       0.1727
     27  C          4.7560  -16.0550   -5.2510 C.2    20  ILE20       0.2615
     28  O          5.5820  -16.9240   -4.9410 O.2    20  ILE20      -0.2715
     29  CB         5.8140  -13.8870   -5.9550 C.3    20  ILE20       0.0290
     30  CG1        5.9530  -12.3980   -5.6400 C.3    20  ILE20       0.0022
     31  CG2        5.1640  -14.0490   -7.3150 C.3    20  ILE20       0.0023
     32  CD1        6.8340  -11.6390   -6.6010 C.3    20  ILE20       0.0001
     33  N          3.6520  -16.3070   -5.9350 N.am   21  TRP21      -0.1988
     34  CA         3.3300  -17.6370   -6.4010 C.3    21  TRP21       0.1456
     35  C          2.5650  -17.6270   -7.7180 C.2    21  TRP21       0.1166
     36  O          1.8980  -18.6320   -8.0750 O.co2  21  TRP21      -0.3065
     37  CB         2.6690  -18.5180   -5.3120 C.3    21  TRP21       0.0562
     38  CG         1.5690  -17.9980   -4.3600 C.ar   21  TRP21       0.0005
     39  CD1        0.7990  -18.7930   -3.5490 C.ar   21  TRP21       0.0946
     40  CD2        1.2480  -16.6350   -3.9890 C.ar   21  TRP21       0.0152
     41  CE2        0.3020  -16.7070   -2.9250 C.ar   21  TRP21       0.0810
     42  CE3        1.6680  -15.3700   -4.4360 C.ar   21  TRP21       0.0012
     43  NE1        0.0520  -18.0350   -2.6840 N.ar   21  TRP21      -0.2442
     44  CZ2       -0.2230  -15.5590   -2.2950 C.ar   21  TRP21       0.0191
     45  CZ3        1.1420  -14.2140   -3.8060 C.ar   21  TRP21       0.0001
     46  CH2        0.2070  -14.3240   -2.7450 C.ar   21  TRP21       0.0015
     47  OXT        2.7400  -16.6140   -8.4280 O.co2  21  TRP21      -0.8460
@<TRIPOS>BOND
     1    47    35   ar
     2    36    35   ar
     3    35    34    1
     4    31    29    1
     5    32    30    1
     6    34    33    1
     7    34    37    1
     8    29    30    1
     9    29    26    1
    10    33    27   am
    11    37    38    1
    12    27    28    2
    13    27    26    1
    14    26    25    1
    15    42    40   ar
    16    42    45   ar
    17    38    40   ar
    18    38    39   ar
    19    40    41   ar
    20    45    46   ar
    21    25    19   am
    22    39    43   ar
    23    41    43   ar
    24    41    44   ar
    25     1     2    1
    26    46    44   ar
    27    19    20    2
    28    19    18    1
    29     4     3    2
    30    23    21    1
    31     2     3    1
    32     2     5    1
    33    21    18    1
    34    21    22    1
    35     3     9   am
    36    18    17    1
    37    17    11   am
    38     5     6    1
    39     6     8    1
    40     6     7    1
    41    22    24    1
    42     9    10    1
    43    11    12    2
    44    11    10    1
    45    10    13    1
    46    15    14   ar
    47    13    14    1
    48    14    16   ar
