@<TRIPOS>MOLECULE
156690
 70 73 0 0 0
SMALL
GASTEIGER

@<TRIPOS>ATOM
      1 S          -6.8278   -2.5954    0.2896 S.O2    1  LIG11       0.0741
      2 O          -0.5594    2.4295    0.5625 O.2     1  LIG11      -0.2756
      3 O          -6.8514   -3.8330    1.0489 O.2     1  LIG11      -0.1499
      4 O          -6.2163   -2.5900   -1.0161 O.2     1  LIG11      -0.1499
      5 O          -1.9296    1.4890   -4.4462 O.2     1  LIG11      -0.4436
      6 O          -9.2010    0.3090   -2.2525 O.2     1  LIG11      -0.3578
      7 N          -0.9063    0.1827    0.2557 N.am    1  LIG11      -0.3002
      8 N          -8.4746   -2.1226    0.1570 N.pl3   1  LIG11      -0.1965
      9 N          -3.7065    0.5865   -5.5077 N.ar    1  LIG11      -0.2175
     10 N          -9.0895   -1.0066   -1.8429 N.ar    1  LIG11      -0.0614
     11 C           2.2805    2.3844   -0.1190 C.3     1  LIG11      -0.0295
     12 C           1.3603    1.1350   -0.1217 C.3     1  LIG11       0.0290
     13 C           3.6882    1.9233   -0.5577 C.3     1  LIG11      -0.0596
     14 C           2.4002    2.9966    1.2869 C.3     1  LIG11      -0.0596
     15 C           1.8016    3.4515   -1.1179 C.3     1  LIG11      -0.0596
     16 C          -0.1052    1.3248    0.2662 C.2     1  LIG11       0.2161
     17 C          -2.3247    0.3241    0.6044 C.3     1  LIG11       0.0400
     18 C          -3.3016    0.2863   -0.5692 C.ar    1  LIG11      -0.0216
     19 C          -4.6882   -0.0016   -0.3826 C.ar    1  LIG11      -0.0113
     20 C          -5.3039   -0.2599    0.9616 C.ar    1  LIG11       0.0090
     21 C          -0.4566   -1.1698   -0.0489 C.3     1  LIG11       0.0035
     22 C          -2.8203    0.6134   -1.8672 C.ar    1  LIG11      -0.0442
     23 C          -6.1251   -1.3458    1.3595 C.ar    1  LIG11       0.1162
     24 C          -5.4891    0.0536   -1.5335 C.ar    1  LIG11      -0.0529
     25 C          -3.6415    0.5930   -2.9986 C.ar    1  LIG11       0.0372
     26 C          -4.9851    0.3011   -2.8135 C.ar    1  LIG11      -0.0489
     27 C          -5.0448    0.7017    1.9718 C.ar    1  LIG11      -0.0521
     28 C          -6.4922   -1.5136    2.7194 C.ar    1  LIG11      -0.0345
     29 C          -5.4271    0.5374    3.3082 C.ar    1  LIG11      -0.0611
     30 C          -3.1422    0.8551   -4.3436 C.ar    1  LIG11       0.2271
     31 C          -6.1292   -0.5900    3.6901 C.ar    1  LIG11      -0.0599
     32 C          -8.7801   -0.9576   -0.5466 C.ar    1  LIG11       0.1837
     33 C          -8.8718    0.3670   -0.0423 C.ar    1  LIG11       0.0342
     34 C          -9.0386    1.1288   -1.1813 C.ar    1  LIG11       0.1390
     35 C          -8.7755    0.8688    1.3440 C.3     1  LIG11      -0.0330
     36 C          -1.7365    1.6204   -5.7882 C.ar    1  LIG11       0.1125
     37 C          -2.8091    1.0577   -6.4299 C.ar    1  LIG11       0.0663
     38 C          -9.0438    2.5810   -1.4483 C.3     1  LIG11      -0.0034
     39 H          -8.9307   -2.9269   -0.2784 H       1  LIG11       0.1753
     40 H           1.3697    0.7038   -1.1315 H       1  LIG11       0.0364
     41 H           1.7838    0.3968    0.5712 H       1  LIG11       0.0364
     42 H           4.0864    1.1631    0.1238 H       1  LIG11       0.0235
     43 H           3.6667    1.4909   -1.5647 H       1  LIG11       0.0235
     44 H           4.3958    2.7601   -0.5713 H       1  LIG11       0.0235
     45 H           2.7140    2.2445    2.0192 H       1  LIG11       0.0235
     46 H           3.1436    3.8023    1.3015 H       1  LIG11       0.0235
     47 H           1.4559    3.4266    1.6326 H       1  LIG11       0.0235
     48 H           1.6670    3.0242   -2.1179 H       1  LIG11       0.0235
     49 H           0.8536    3.9059   -0.8173 H       1  LIG11       0.0235
     50 H           2.5320    4.2650   -1.2017 H       1  LIG11       0.0235
     51 H          -2.5505   -0.4824    1.3113 H       1  LIG11       0.0514
     52 H          -2.4651    1.2755    1.1263 H       1  LIG11       0.0514
     53 H           0.5937   -1.2175   -0.3332 H       1  LIG11       0.0429
     54 H          -0.6037   -1.7898    0.8407 H       1  LIG11       0.0429
     55 H          -1.0550   -1.5726   -0.8706 H       1  LIG11       0.0429
     56 H          -1.7726    0.8768   -1.9999 H       1  LIG11       0.0628
     57 H          -6.5487   -0.1312   -1.4785 H       1  LIG11       0.0624
     58 H          -5.6650    0.2654   -3.6643 H       1  LIG11       0.0625
     59 H          -4.5205    1.6238    1.7206 H       1  LIG11       0.0624
     60 H          -7.0907   -2.3709    3.0313 H       1  LIG11       0.0637
     61 H          -5.1660    1.2934    4.0443 H       1  LIG11       0.0618
     62 H          -6.4216   -0.7386    4.7262 H       1  LIG11       0.0618
     63 H          -8.8283    0.0564    2.0726 H       1  LIG11       0.0280
     64 H          -7.8471    1.4258    1.4921 H       1  LIG11       0.0280
     65 H          -9.6065    1.5492    1.5590 H       1  LIG11       0.0280
     66 H          -0.8280    2.1124   -6.1008 H       1  LIG11       0.1046
     67 H          -2.9870    0.9705   -7.4923 H       1  LIG11       0.0862
     68 H          -8.9943    2.7910   -2.5209 H       1  LIG11       0.0309
     69 H          -9.9462    3.0464   -1.0435 H       1  LIG11       0.0309
     70 H          -8.1730    3.0533   -0.9794 H       1  LIG11       0.0309
@<TRIPOS>BOND
     1     1     3    2
     2     1     4    2
     3     1     8    1
     4     1    23    1
     5     2    16    2
     6     5    30   ar
     7     5    36   ar
     8     6    10   ar
     9     6    34   ar
    10     7    16   am
    11     7    17    1
    12     7    21    1
    13     8    32    1
    14     9    30   ar
    15     9    37   ar
    16    10    32   ar
    17    11    12    1
    18    11    13    1
    19    11    14    1
    20    11    15    1
    21    12    16    1
    22    17    18    1
    23    18    19   ar
    24    18    22   ar
    25    19    20    1
    26    19    24   ar
    27    20    23   ar
    28    20    27   ar
    29    22    25   ar
    30    23    28   ar
    31    24    26   ar
    32    25    26   ar
    33    25    30    1
    34    27    29   ar
    35    28    31   ar
    36    29    31   ar
    37    32    33   ar
    38    33    34   ar
    39    33    35    1
    40    34    38    1
    41    36    37   ar
    42     8    39    1
    43    12    40    1
    44    12    41    1
    45    13    42    1
    46    13    43    1
    47    13    44    1
    48    14    45    1
    49    14    46    1
    50    14    47    1
    51    15    48    1
    52    15    49    1
    53    15    50    1
    54    17    51    1
    55    17    52    1
    56    21    53    1
    57    21    54    1
    58    21    55    1
    59    22    56    1
    60    24    57    1
    61    26    58    1
    62    27    59    1
    63    28    60    1
    64    29    61    1
    65    31    62    1
    66    35    63    1
    67    35    64    1
    68    35    65    1
    69    36    66    1
    70    37    67    1
    71    38    68    1
    72    38    69    1
    73    38    70    1
@<TRIPOS>MOLECULE
16219006
 85 88 0 0 0
SMALL
GASTEIGER

@<TRIPOS>ATOM
      1 O           4.2431   -0.9993    2.2271 O.2     1  PRO11      -0.2738
      2 O           3.0851    1.0077   -1.3271 O.2     5  ASP55      -0.2735
      3 O           2.0185   -2.0022   -1.8619 O.2     2  VAL22      -0.2738
      4 O          -0.4555    2.9185    1.2921 O.2     4  TRP44      -0.2738
      5 O          -0.3234   -1.1633    1.7377 O.2     3  LEU33      -0.2738
      6 OD1         3.6408    4.3603   -3.0931 O.co2   5  ASP55      -0.5497
      7 OD2         3.2063    5.0147   -0.9545 O.co2   5  ASP55      -0.5497
      8 N           3.4482    1.8291    0.7504 N.am    1  PRO11      -0.2884
      9 N           4.1633   -1.1307   -0.0593 N.am    2  VAL22      -0.3022
     10 N           0.4232    1.9814   -0.6147 N.am    5  ASP55      -0.3021
     11 N           1.2186   -2.8244    0.1121 N.am    3  LEU33      -0.3025
     12 N          -1.1405   -0.2777   -0.2153 N.am    4  TRP44      -0.3022
     13 NE1        -5.4962   -0.6803   -1.3421 N.ar    4  TRP44      -0.3604
     14 CA          4.6698    1.0484    0.9430 C.3     1  PRO11       0.1023
     15 CB          5.3222    1.6670    2.1832 C.3     1  PRO11      -0.0243
     16 CG          4.1495    2.2742    2.9437 C.3     1  PRO11      -0.0350
     17 CD          3.2511    2.7820    1.8289 C.3     1  PRO11       0.0156
     18 C           4.3477   -0.4530    1.1317 C.2     1  PRO11       0.2342
     19 C           2.8145    1.8621   -0.4710 C.2     5  ASP55       0.2369
     20 CA          3.6469   -2.4920   -0.1075 C.3     2  VAL22       0.1017
     21 CA          1.6253    2.8333   -0.6703 C.3     5  ASP55       0.1047
     22 CB          4.5965   -3.4463   -0.8658 C.3     2  VAL22      -0.0197
     23 CA         -0.1602   -2.5289   -0.2551 C.3     3  LEU33       0.0996
     24 C           2.2378   -2.4177   -0.7266 C.2     2  VAL22       0.2342
     25 CB          1.7242    3.5113   -2.0261 C.3     5  ASP55       0.0138
     26 CA         -1.5796    0.9748    0.4070 C.3     4  TRP44       0.1034
     27 CB         -1.1044   -3.6779    0.1109 C.3     3  LEU33      -0.0236
     28 CG         -0.7918   -5.0062   -0.6103 C.3     3  LEU33      -0.0446
     29 C          -0.4489    2.0187    0.4532 C.2     4  TRP44       0.2343
     30 CB         -2.7741    1.5936   -0.3355 C.3     4  TRP44       0.0013
     31 C          -0.5419   -1.2658    0.5309 C.2     3  LEU33       0.2340
     32 CG1         4.8783   -3.0464   -2.3171 C.3     2  VAL22      -0.0605
     33 CG2         4.0838   -4.8893   -0.8132 C.3     2  VAL22      -0.0605
     34 CG         -3.9449    0.6610   -0.4654 C.ar    4  TRP44      -0.0201
     35 CG          2.9787    4.3776   -2.0186 C.2     5  ASP55       0.0440
     36 CD1        -1.7743   -6.0868   -0.1540 C.3     3  LEU33      -0.0626
     37 CD2        -0.8390   -4.8763   -2.1337 C.3     3  LEU33      -0.0626
     38 CD2        -4.7576    0.1395    0.5942 C.ar    4  TRP44       0.0029
     39 CD1        -4.4392    0.1349   -1.6437 C.ar    4  TRP44       0.0060
     40 CE2        -5.7072   -0.7036    0.0166 C.ar    4  TRP44       0.0467
     41 CE3        -4.7680    0.2991    1.9954 C.ar    4  TRP44      -0.0523
     42 CZ2        -6.6606   -1.4012    0.7679 C.ar    4  TRP44      -0.0378
     43 CZ3        -5.7120   -0.3932    2.7629 C.ar    4  TRP44      -0.0611
     44 CH2        -6.6428   -1.2315    2.1562 C.ar    4  TRP44      -0.0598
     45 H           3.9399   -0.5305   -0.8637 H       2  VAL22       0.1495
     46 H           0.4939    1.1180   -1.1388 H       5  ASP55       0.1495
     47 H           1.4152   -2.7811    1.1098 H       3  LEU33       0.1495
     48 H          -1.2031   -0.3672   -1.2215 H       4  TRP44       0.1495
     49 HE1        -6.0461   -1.1933   -2.0151 H       4  TRP44       0.1653
     50 HA          5.3288    1.1561    0.0726 H       1  PRO11       0.0597
     51 HB1         6.0050    2.4692    1.8751 H       1  PRO11       0.0288
     52 HB2         5.8915    0.9565    2.7896 H       1  PRO11       0.0288
     53 HG1         4.4529    3.0676    3.6326 H       1  PRO11       0.0281
     54 HG2         3.6341    1.4973    3.5198 H       1  PRO11       0.0281
     55 HD1         2.2012    2.8221    2.1310 H       1  PRO11       0.0465
     56 HD2         3.5702    3.7696    1.4822 H       1  PRO11       0.0465
     57 HA          3.5548   -2.8667    0.9187 H       2  VAL22       0.0597
     58 HA          1.5666    3.5743    0.1289 H       5  ASP55       0.0598
     59 HB          5.5611   -3.4247   -0.3410 H       2  VAL22       0.0318
     60 HA         -0.2344   -2.3119   -1.3254 H       3  LEU33       0.0594
     61 HB1         0.8519    4.1509   -2.2079 H       5  ASP55       0.0348
     62 HB2         1.7698    2.7798   -2.8411 H       5  ASP55       0.0348
     63 HA         -1.8464    0.7557    1.4478 H       4  TRP44       0.0598
     64 HB1        -2.1363   -3.3745   -0.1112 H       3  LEU33       0.0290
     65 HB2        -1.0667   -3.8494    1.1956 H       3  LEU33       0.0290
     66 HG          0.2164   -5.3358   -0.3281 H       3  LEU33       0.0296
     67 HB1        -2.4609    1.9142   -1.3383 H       4  TRP44       0.0337
     68 HB2        -3.1028    2.5041    0.1828 H       4  TRP44       0.0337
     69 HG11        3.9914   -3.1472   -2.9502 H       2  VAL22       0.0233
     70 HG12        5.6535   -3.6925   -2.7431 H       2  VAL22       0.0233
     71 HG13        5.2378   -2.0156   -2.3869 H       2  VAL22       0.0233
     72 HG21        3.1415   -5.0039   -1.3607 H       2  VAL22       0.0233
     73 HG22        3.9161   -5.2064    0.2215 H       2  VAL22       0.0233
     74 HG23        4.8125   -5.5752   -1.2570 H       2  VAL22       0.0233
     75 HD11       -2.8044   -5.8260   -0.4209 H       3  LEU33       0.0232
     76 HD12       -1.7280   -6.2231    0.9311 H       3  LEU33       0.0232
     77 HD13       -1.5373   -7.0496   -0.6207 H       3  LEU33       0.0232
     78 HD21       -1.7972   -4.4629   -2.4675 H       3  LEU33       0.0232
     79 HD22       -0.7062   -5.8520   -2.6121 H       3  LEU33       0.0232
     80 HD23       -0.0391   -4.2274   -2.5044 H       3  LEU33       0.0232
     81 HD1        -4.1275    0.2743   -2.6702 H       4  TRP44       0.0810
     82 HE3        -4.0476    0.9488    2.4837 H       4  TRP44       0.0624
     83 HZ2        -7.3884   -2.0532    0.2983 H       4  TRP44       0.0638
     84 HZ3        -5.7116   -0.2733    3.8436 H       4  TRP44       0.0618
     85 HH2        -7.3665   -1.7619    2.7700 H       4  TRP44       0.0618
@<TRIPOS>BOND
     1     1    18    2
     2     2    19    2
     3     3    24    2
     4     4    29    2
     5     5    31    2
     6     6    35   ar
     7     7    35   ar
     8     8    14    1
     9     8    17    1
    10     8    19   am
    11     9    18   am
    12     9    20    1
    13    10    21    1
    14    10    29   am
    15    11    23    1
    16    11    24   am
    17    12    26    1
    18    12    31   am
    19    13    39   ar
    20    13    40   ar
    21    14    15    1
    22    14    18    1
    23    15    16    1
    24    16    17    1
    25    19    21    1
    26    20    22    1
    27    20    24    1
    28    21    25    1
    29    22    32    1
    30    22    33    1
    31    23    27    1
    32    23    31    1
    33    25    35    1
    34    26    29    1
    35    26    30    1
    36    27    28    1
    37    28    36    1
    38    28    37    1
    39    30    34    1
    40    34    38   ar
    41    34    39   ar
    42    38    40   ar
    43    38    41   ar
    44    40    42   ar
    45    41    43   ar
    46    42    44   ar
    47    43    44   ar
    48     9    45    1
    49    10    46    1
    50    11    47    1
    51    12    48    1
    52    13    49    1
    53    14    50    1
    54    15    51    1
    55    15    52    1
    56    16    53    1
    57    16    54    1
    58    17    55    1
    59    17    56    1
    60    20    57    1
    61    21    58    1
    62    22    59    1
    63    23    60    1
    64    25    61    1
    65    25    62    1
    66    26    63    1
    67    27    64    1
    68    27    65    1
    69    28    66    1
    70    30    67    1
    71    30    68    1
    72    32    69    1
    73    32    70    1
    74    32    71    1
    75    33    72    1
    76    33    73    1
    77    33    74    1
    78    36    75    1
    79    36    76    1
    80    36    77    1
    81    37    78    1
    82    37    79    1
    83    37    80    1
    84    39    81    1
    85    41    82    1
    86    42    83    1
    87    43    84    1
    88    44    85    1
