@<TRIPOS>MOLECULE
01178588C
 55 57 0 0 0
SMALL
GASTEIGER

@<TRIPOS>ATOM
      1 S          -0.9229    3.9181   -0.6759 S.O2    1  LIG11       0.0756
      2 C          -1.7390    3.9276   -2.2440 C.ar    1  LIG11       0.1344
      3 N           0.2385    2.6971   -0.8112 N.pl3   1  LIG11      -0.1951
      4 O          -1.8976    3.5361    0.3206 O.2     1  LIG11      -0.1499
      5 O          -0.2499    5.2010   -0.5555 O.2     1  LIG11      -0.1499
      6 C          -2.3014    2.7989   -2.8334 C.ar    1  LIG11       0.0975
      7 C          -1.8127    5.1569   -2.9244 C.ar    1  LIG11      -0.0315
      8 C           1.3734    2.9776    0.0026 C.ar    1  LIG11       0.2006
      9 C          -2.2865    1.4110   -2.3333 C.ar    1  LIG11       0.0023
     10 N          -2.9191    2.8902   -4.0534 N.ar    1  LIG11      -0.2530
     11 C          -2.4359    5.2369   -4.1625 C.ar    1  LIG11      -0.0417
     12 C           2.4287    3.8114   -0.3947 C.ar    1  LIG11       0.2574
     13 N           1.2496    2.5027    1.2580 N.ar    1  LIG11      -0.2325
     14 C          -1.7813    0.3902   -3.1594 C.ar    1  LIG11      -0.0523
     15 C          -2.8406    1.0235   -1.1052 C.ar    1  LIG11      -0.0523
     16 C          -2.9730    4.0812   -4.6827 C.ar    1  LIG11       0.0284
     17 N           3.4047    4.1943    0.4690 N.ar    1  LIG11      -0.2137
     18 O           2.4657    4.2467   -1.7058 O.3     1  LIG11      -0.4773
     19 C           2.2246    2.8962    2.1107 C.ar    1  LIG11       0.0510
     20 C          -1.8159   -0.9530   -2.7745 C.ar    1  LIG11      -0.0579
     21 C          -2.8496   -0.3204   -0.7021 C.ar    1  LIG11      -0.0579
     22 C           3.2781    3.7307    1.7375 C.ar    1  LIG11       0.0602
     23 C           3.5950    5.0607   -1.9924 C.3     1  LIG11       0.0805
     24 C          -2.3445   -1.3238   -1.5371 C.ar    1  LIG11      -0.0465
     25 C           4.2920    4.1707    2.7463 C.3     1  LIG11      -0.0208
     26 C          -2.4226   -2.7853   -1.1405 C.3     1  LIG11      -0.0174
     27 C          -1.0895   -3.4820   -0.7891 C.3     1  LIG11       0.0085
     28 C          -0.2375   -3.7761   -2.0526 C.2     1  LIG11       0.0477
     29 C          -0.3165   -2.7099    0.2865 C.3     1  LIG11      -0.0544
     30 C          -1.3938   -4.8971   -0.2570 C.3     1  LIG11      -0.0544
     31 O          -0.8706   -4.2354   -3.0478 O.co2   1  LIG11      -0.5493
     32 O           1.0023   -3.5520   -1.9500 O.co2   1  LIG11      -0.5493
     33 H          -0.1648    1.8263   -0.4530 H       1  LIG11       0.1754
     34 H          -1.3803    6.0588   -2.4957 H       1  LIG11       0.0638
     35 H          -2.4961    6.1738   -4.7034 H       1  LIG11       0.0633
     36 H          -1.3801    0.6321   -4.1424 H       1  LIG11       0.0624
     37 H          -3.3108    1.7527   -0.4507 H       1  LIG11       0.0624
     38 H          -3.4725    4.0717   -5.6468 H       1  LIG11       0.0830
     39 H           2.1254    2.5290    3.1273 H       1  LIG11       0.0848
     40 H          -1.4423   -1.7123   -3.4615 H       1  LIG11       0.0620
     41 H          -3.2814   -0.5817    0.2612 H       1  LIG11       0.0620
     42 H           3.5474    5.3365   -3.0503 H       1  LIG11       0.0660
     43 H           4.5316    4.5141   -1.8351 H       1  LIG11       0.0660
     44 H           3.5761    5.9862   -1.4066 H       1  LIG11       0.0660
     45 H           5.0582    4.7986    2.2800 H       1  LIG11       0.0293
     46 H           4.7866    3.3036    3.1940 H       1  LIG11       0.0293
     47 H           3.8086    4.7562    3.5351 H       1  LIG11       0.0293
     48 H          -2.9467   -3.3192   -1.9451 H       1  LIG11       0.0322
     49 H          -3.0964   -2.8660   -0.2753 H       1  LIG11       0.0322
     50 H          -0.9460   -2.5162    1.1623 H       1  LIG11       0.0239
     51 H           0.0479   -1.7478   -0.0895 H       1  LIG11       0.0239
     52 H           0.5595   -3.2714    0.6322 H       1  LIG11       0.0239
     53 H          -1.9546   -4.8505    0.6836 H       1  LIG11       0.0239
     54 H          -0.4734   -5.4622   -0.0660 H       1  LIG11       0.0239
     55 H          -1.9938   -5.4801   -0.9662 H       1  LIG11       0.0239
@<TRIPOS>BOND
     1     1     5    2
     2     1     4    2
     3     1     3    1
     4     1     2    1
     5     2     6   ar
     6     2     7   ar
     7     3     8    1
     8     6    10   ar
     9     6     9    1
    10     7    11   ar
    11     8    12   ar
    12     8    13   ar
    13     9    14   ar
    14     9    15   ar
    15    10    16   ar
    16    11    16   ar
    17    12    17   ar
    18    12    18    1
    19    13    19   ar
    20    14    20   ar
    21    15    21   ar
    22    17    22   ar
    23    18    23    1
    24    19    22   ar
    25    20    24   ar
    26    21    24   ar
    27    22    25    1
    28    24    26    1
    29    26    27    1
    30    27    30    1
    31    27    29    1
    32    27    28    1
    33    28    32   ar
    34    28    31   ar
    35     3    33    1
    36     7    34    1
    37    11    35    1
    38    14    36    1
    39    15    37    1
    40    16    38    1
    41    19    39    1
    42    20    40    1
    43    21    41    1
    44    23    42    1
    45    23    43    1
    46    23    44    1
    47    25    45    1
    48    25    46    1
    49    25    47    1
    50    26    48    1
    51    26    49    1
    52    29    50    1
    53    29    51    1
    54    29    52    1
    55    30    53    1
    56    30    54    1
    57    30    55    1
@<TRIPOS>MOLECULE
16219006
 85 88 0 0 0
SMALL
GASTEIGER

@<TRIPOS>ATOM
      1 O           4.1557   -1.0452    2.2986 O.2     1  PRO11      -0.2738
      2 O           3.0944    0.9877   -1.2973 O.2     5  ASP55      -0.2735
      3 O           2.0610   -2.3097   -1.8452 O.2     2  VAL22      -0.2738
      4 O          -0.6167    3.0015    1.1537 O.2     4  TRP44      -0.2738
      5 O          -0.5987   -1.1388    1.7964 O.2     3  LEU33      -0.2738
      6 OD1         3.6031    4.5831   -1.0198 O.co2   5  ASP55      -0.5497
      7 OD2         3.2314    4.8087   -3.2572 O.co2   5  ASP55      -0.5497
      8 N           3.4064    1.7737    0.8056 N.am    1  PRO11      -0.2884
      9 N           4.1265   -1.1882    0.0147 N.am    2  VAL22      -0.3022
     10 N           0.4416    1.9713   -0.6038 N.am    5  ASP55      -0.3021
     11 N           1.2327   -2.7028    0.2505 N.am    3  LEU33      -0.3025
     12 N          -1.1773   -0.2823   -0.2551 N.am    4  TRP44      -0.3022
     13 NE1        -2.0377    1.6870   -4.1549 N.ar    4  TRP44      -0.3604
     14 CA          4.6238    0.9928    1.0120 C.3     1  PRO11       0.1023
     15 CB          5.2683    1.6123    2.2549 C.3     1  PRO11      -0.0243
     16 CG          4.0897    2.2193    3.0066 C.3     1  PRO11      -0.0350
     17 CD          3.1988    2.7244    1.8839 C.3     1  PRO11       0.0156
     18 C           4.2888   -0.5039    1.2026 C.2     1  PRO11       0.2342
     19 C           2.8134    1.8381   -0.4391 C.2     5  ASP55       0.2369
     20 CA          3.6690   -2.5713   -0.0330 C.3     2  VAL22       0.1017
     21 CA          1.6383    2.8258   -0.6493 C.3     5  ASP55       0.1047
     22 CB          4.6106   -3.4536   -0.8819 C.3     2  VAL22      -0.0197
     23 CA         -0.1468   -2.4979   -0.1616 C.3     3  LEU33       0.0996
     24 C           2.2601   -2.5255   -0.6503 C.2     2  VAL22       0.2342
     25 CB          1.7342    3.5013   -2.0073 C.3     5  ASP55       0.0138
     26 CA         -1.6560    1.0054    0.2610 C.3     4  TRP44       0.1034
     27 CB         -1.0334   -3.6992    0.1881 C.3     3  LEU33      -0.0236
     28 CG         -0.6817   -4.9973   -0.5698 C.3     3  LEU33      -0.0446
     29 C          -0.5390    2.0694    0.3543 C.2     4  TRP44       0.2343
     30 CB         -2.8530    1.5217   -0.5550 C.3     4  TRP44       0.0013
     31 C          -0.6536   -1.2470    0.5739 C.2     3  LEU33       0.2340
     32 CG1         4.0811   -4.8908   -0.9811 C.3     2  VAL22      -0.0605
     33 CG2         6.0234   -3.4844   -0.2881 C.3     2  VAL22      -0.0605
     34 CG         -2.5538    1.8540   -1.9905 C.ar    4  TRP44      -0.0201
     35 CG          2.9770    4.3785   -2.0965 C.2     5  ASP55       0.0440
     36 CD1        -1.6136   -6.1254   -0.1186 C.3     3  LEU33      -0.0626
     37 CD2        -0.7721   -4.8396   -2.0892 C.3     3  LEU33      -0.0626
     38 CD2        -2.4402    3.1715   -2.5451 C.ar    4  TRP44       0.0029
     39 CD1        -2.3475    0.9667   -3.0316 C.ar    4  TRP44       0.0060
     40 CE2        -2.1213    3.0329   -3.8952 C.ar    4  TRP44       0.0467
     41 CE3        -2.5655    4.4731   -2.0170 C.ar    4  TRP44      -0.0523
     42 CZ2        -1.9184    4.1272   -4.7439 C.ar    4  TRP44      -0.0378
     43 CZ3        -2.3782    5.5789   -2.8539 C.ar    4  TRP44      -0.0611
     44 CH2        -2.0575    5.4055   -4.1973 C.ar    4  TRP44      -0.0598
     45 H           3.9263   -0.5980   -0.8023 H       2  VAL22       0.1495
     46 H           0.4695    1.1687   -1.2147 H       5  ASP55       0.1495
     47 H           1.4404   -2.5469    1.2349 H       3  LEU33       0.1495
     48 H          -0.9555   -0.3278   -1.2413 H       4  TRP44       0.1495
     49 HE1        -1.7864    1.2973   -5.0527 H       4  TRP44       0.1653
     50 HA          5.2922    1.0934    0.1479 H       1  PRO11       0.0597
     51 HB1         5.9521    2.4150    1.9508 H       1  PRO11       0.0288
     52 HB2         5.8344    0.9024    2.8648 H       1  PRO11       0.0288
     53 HG1         4.3882    3.0135    3.6964 H       1  PRO11       0.0281
     54 HG2         3.5716    1.4423    3.5807 H       1  PRO11       0.0281
     55 HD1         2.1457    2.7604    2.1742 H       1  PRO11       0.0465
     56 HD2         3.5182    3.7151    1.5450 H       1  PRO11       0.0465
     57 HA          3.6070   -2.9807    0.9821 H       2  VAL22       0.0597
     58 HA          1.5774    3.5718    0.1455 H       5  ASP55       0.0598
     59 HB          4.6807   -3.0462   -1.8990 H       2  VAL22       0.0318
     60 HA         -0.1979   -2.3076   -1.2376 H       3  LEU33       0.0594
     61 HB1         0.8538    4.1327   -2.1772 H       5  ASP55       0.0348
     62 HB2         1.7634    2.7614   -2.8171 H       5  ASP55       0.0348
     63 HA         -1.9944    0.8335    1.2910 H       4  TRP44       0.0598
     64 HB1        -2.0811   -3.4374   -0.0126 H       3  LEU33       0.0290
     65 HB2        -0.9717   -3.8940    1.2676 H       3  LEU33       0.0290
     66 HG          0.3444   -5.2914   -0.3167 H       3  LEU33       0.0296
     67 HB1        -3.2665    2.4075   -0.0573 H       4  TRP44       0.0337
     68 HB2        -3.6492    0.7653   -0.5400 H       4  TRP44       0.0337
     69 HG11        3.9550   -5.3358    0.0119 H       2  VAL22       0.0233
     70 HG12        4.7729   -5.5221   -1.5489 H       2  VAL22       0.0233
     71 HG13        3.1145   -4.9283   -1.4935 H       2  VAL22       0.0233
     72 HG21        6.0123   -3.8611    0.7406 H       2  VAL22       0.0233
     73 HG22        6.4743   -2.4872   -0.2810 H       2  VAL22       0.0233
     74 HG23        6.6778   -4.1354   -0.8780 H       2  VAL22       0.0233
     75 HD11       -2.6579   -5.8977   -0.3594 H       3  LEU33       0.0232
     76 HD12       -1.5403   -6.2835    0.9623 H       3  LEU33       0.0232
     77 HD13       -1.3514   -7.0676   -0.6118 H       3  LEU33       0.0232
     78 HD21       -1.7496   -4.4485   -2.3908 H       3  LEU33       0.0232
     79 HD22       -0.6237   -5.8023   -2.5904 H       3  LEU33       0.0232
     80 HD23       -0.0016   -4.1622   -2.4679 H       3  LEU33       0.0232
     81 HD1        -2.3666   -0.1137   -3.0704 H       4  TRP44       0.0810
     82 HE3        -2.7860    4.6254   -0.9646 H       4  TRP44       0.0624
     83 HZ2        -1.6408    3.9968   -5.7843 H       4  TRP44       0.0638
     84 HZ3        -2.4592    6.5815   -2.4424 H       4  TRP44       0.0618
     85 HH2        -1.8871    6.2766   -4.8250 H       4  TRP44       0.0618
@<TRIPOS>BOND
     1     1    18    2
     2     2    19    2
     3     3    24    2
     4     4    29    2
     5     5    31    2
     6     6    35   ar
     7     7    35   ar
     8     8    14    1
     9     8    17    1
    10     8    19   am
    11     9    18   am
    12     9    20    1
    13    10    21    1
    14    10    29   am
    15    11    23    1
    16    11    24   am
    17    12    26    1
    18    12    31   am
    19    13    39   ar
    20    13    40   ar
    21    14    15    1
    22    14    18    1
    23    15    16    1
    24    16    17    1
    25    19    21    1
    26    20    22    1
    27    20    24    1
    28    21    25    1
    29    22    32    1
    30    22    33    1
    31    23    27    1
    32    23    31    1
    33    25    35    1
    34    26    29    1
    35    26    30    1
    36    27    28    1
    37    28    36    1
    38    28    37    1
    39    30    34    1
    40    34    38   ar
    41    34    39   ar
    42    38    40   ar
    43    38    41   ar
    44    40    42   ar
    45    41    43   ar
    46    42    44   ar
    47    43    44   ar
    48     9    45    1
    49    10    46    1
    50    11    47    1
    51    12    48    1
    52    13    49    1
    53    14    50    1
    54    15    51    1
    55    15    52    1
    56    16    53    1
    57    16    54    1
    58    17    55    1
    59    17    56    1
    60    20    57    1
    61    21    58    1
    62    22    59    1
    63    23    60    1
    64    25    61    1
    65    25    62    1
    66    26    63    1
    67    27    64    1
    68    27    65    1
    69    28    66    1
    70    30    67    1
    71    30    68    1
    72    32    69    1
    73    32    70    1
    74    32    71    1
    75    33    72    1
    76    33    73    1
    77    33    74    1
    78    36    75    1
    79    36    76    1
    80    36    77    1
    81    37    78    1
    82    37    79    1
    83    37    80    1
    84    39    81    1
    85    41    82    1
    86    42    83    1
    87    43    84    1
    88    44    85    1
