@<TRIPOS>MOLECULE
9871593
 62 65 0 0 0
SMALL
GASTEIGER

@<TRIPOS>ATOM
      1 O           3.3823    2.1719    2.7080 O.3     1  LIG11      -0.4526
      2 O           4.7207    1.7071    0.7533 O.3     1  LIG11      -0.4526
      3 O          -2.3652   -4.7623   -0.7831 O.3     1  LIG11      -0.4913
      4 O           2.2872   -3.4480   -0.8975 O.3     1  LIG11      -0.4913
      5 O           0.3341   -5.2936   -1.5184 O.3     1  LIG11      -0.4885
      6 O          -3.0027    0.8142   -1.5447 O.2     1  LIG11      -0.2870
      7 O          -0.8404    3.7491   -1.3265 O.co2   1  LIG11      -0.5446
      8 O          -2.4453    3.5369    0.2973 O.co2   1  LIG11      -0.5446
      9 O          -7.4806   -1.3267    2.3276 O.3     1  LIG11      -0.4951
     10 C          -1.1334   -0.4726    1.1263 C.3     1  LIG11       0.0021
     11 C          -1.5749    0.7343    0.3449 C.2     1  LIG11       0.0135
     12 C          -0.7560   -1.7068    0.3443 C.ar    1  LIG11      -0.0358
     13 C          -0.8221    1.8342    0.1150 C.2     1  LIG11       0.0117
     14 C           0.6359    1.8708    0.2896 C.ar    1  LIG11      -0.0121
     15 C          -2.9194    0.6898   -0.3211 C.2     1  LIG11       0.1901
     16 C           0.5863   -1.9402    0.0090 C.ar    1  LIG11      -0.0126
     17 C          -1.7128   -2.6785    0.0342 C.ar    1  LIG11      -0.0126
     18 C           1.2443    2.0886    1.5308 C.ar    1  LIG11      -0.0084
     19 C           2.6226    2.0159    1.5882 C.ar    1  LIG11       0.1668
     20 C           1.4359    1.6111   -0.8503 C.ar    1  LIG11      -0.0503
     21 C           3.3900    1.7515    0.4740 C.ar    1  LIG11       0.1663
     22 C          -1.3342   -3.8838   -0.5608 C.ar    1  LIG11       0.1654
     23 C           0.9830   -3.1331   -0.6056 C.ar    1  LIG11       0.1654
     24 C          -4.1285    0.2666    0.4344 C.ar    1  LIG11       0.0222
     25 C           0.0066   -4.0995   -0.9188 C.ar    1  LIG11       0.2035
     26 C           2.8277    1.5533   -0.7650 C.ar    1  LIG11      -0.0156
     27 C          -1.4450    3.1594   -0.3889 C.2     1  LIG11       0.0726
     28 C           4.7065    2.0170    2.1602 C.3     1  LIG11       0.2332
     29 C          -4.2669    0.4298    1.8161 C.ar    1  LIG11      -0.0475
     30 C          -5.1606   -0.3506   -0.2902 C.ar    1  LIG11      -0.0475
     31 C          -5.3828   -0.1023    2.4761 C.ar    1  LIG11      -0.0193
     32 C          -6.2810   -0.8608    0.3644 C.ar    1  LIG11      -0.0193
     33 C          -6.3690   -0.7749    1.7502 C.ar    1  LIG11       0.1201
     34 C          -2.0882   -6.0954   -0.3634 C.3     1  LIG11       0.0790
     35 C           3.2875   -2.5187   -0.4987 C.3     1  LIG11       0.0790
     36 C           0.9383   -5.1113   -2.7975 C.3     1  LIG11       0.0791
     37 C          -7.1520   -2.2293    3.3812 C.3     1  LIG11       0.0788
     38 H          -1.9036   -0.7591    1.8513 H       1  LIG11       0.0363
     39 H          -0.2906   -0.2174    1.7812 H       1  LIG11       0.0363
     40 H           1.3098   -1.1732    0.2671 H       1  LIG11       0.0658
     41 H          -2.7578   -2.5219    0.2909 H       1  LIG11       0.0658
     42 H           0.6546    2.3024    2.4141 H       1  LIG11       0.0661
     43 H           0.9481    1.4731   -1.8160 H       1  LIG11       0.0625
     44 H           3.4320    1.3654   -1.6433 H       1  LIG11       0.0655
     45 H           5.2137    1.2074    2.6977 H       1  LIG11       0.1166
     46 H           5.2662    2.9460    2.3196 H       1  LIG11       0.1166
     47 H          -3.5174    0.9773    2.3825 H       1  LIG11       0.0626
     48 H          -5.0833   -0.4434   -1.3723 H       1  LIG11       0.0626
     49 H          -5.4776    0.0327    3.5486 H       1  LIG11       0.0654
     50 H          -7.0692   -1.3411   -0.2077 H       1  LIG11       0.0654
     51 H          -3.0333   -6.5436   -0.0408 H       1  LIG11       0.0660
     52 H          -1.3960   -6.1416    0.4853 H       1  LIG11       0.0660
     53 H          -1.7153   -6.6856   -1.2053 H       1  LIG11       0.0660
     54 H           4.2607   -2.9456   -0.7596 H       1  LIG11       0.0660
     55 H           3.2768   -2.3629    0.5854 H       1  LIG11       0.0660
     56 H           3.1844   -1.5733   -1.0399 H       1  LIG11       0.0660
     57 H           0.6052   -5.9317   -3.4406 H       1  LIG11       0.0660
     58 H           2.0264   -5.1833   -2.7086 H       1  LIG11       0.0660
     59 H           0.6535   -4.1696   -3.2809 H       1  LIG11       0.0660
     60 H          -8.0226   -2.8696    3.5545 H       1  LIG11       0.0660
     61 H          -6.9451   -1.6839    4.3067 H       1  LIG11       0.0660
     62 H          -6.3089   -2.8787    3.1169 H       1  LIG11       0.0660
@<TRIPOS>BOND
     1     1    19    1
     2     1    28    1
     3     2    28    1
     4     2    21    1
     5     3    22    1
     6     3    34    1
     7     4    23    1
     8     4    35    1
     9     5    25    1
    10     5    36    1
    11     6    15    2
    12     7    27   ar
    13     8    27   ar
    14     9    33    1
    15     9    37    1
    16    10    11    1
    17    10    12    1
    18    11    13    2
    19    11    15    1
    20    12    16   ar
    21    12    17   ar
    22    13    14    1
    23    13    27    1
    24    14    20   ar
    25    14    18   ar
    26    15    24    1
    27    16    23   ar
    28    17    22   ar
    29    18    19   ar
    30    19    21   ar
    31    20    26   ar
    32    21    26   ar
    33    22    25   ar
    34    23    25   ar
    35    24    29   ar
    36    24    30   ar
    37    29    31   ar
    38    30    32   ar
    39    31    33   ar
    40    32    33   ar
    41    10    38    1
    42    10    39    1
    43    16    40    1
    44    17    41    1
    45    18    42    1
    46    20    43    1
    47    26    44    1
    48    28    45    1
    49    28    46    1
    50    29    47    1
    51    30    48    1
    52    31    49    1
    53    32    50    1
    54    34    51    1
    55    34    52    1
    56    34    53    1
    57    35    54    1
    58    35    55    1
    59    35    56    1
    60    36    57    1
    61    36    58    1
    62    36    59    1
    63    37    60    1
    64    37    61    1
    65    37    62    1
@<TRIPOS>MOLECULE
16219006
 85 88 0 0 0
SMALL
GASTEIGER

@<TRIPOS>ATOM
      1 O           4.5078   -1.0447    2.2428 O.2     1  PRO11      -0.2738
      2 O           3.4143    1.1728   -1.4276 O.2     5  ASP55      -0.2735
      3 O           2.1319   -2.2287   -1.8897 O.2     2  VAL22      -0.2738
      4 O          -0.3367    2.8402    1.3427 O.2     4  TRP44      -0.2738
      5 O          -0.1034   -1.0821    1.7400 O.2     3  LEU33      -0.2738
      6 OD1        -0.6514    3.6383   -2.6695 O.co2   5  ASP55      -0.5497
      7 OD2         0.7080    5.3681   -2.0318 O.co2   5  ASP55      -0.5497
      8 N           3.4723    1.8232    0.7352 N.am    1  PRO11      -0.2884
      9 N           4.1223   -1.0819   -0.0093 N.am    2  VAL22      -0.3022
     10 N           0.5502    1.7781   -0.4940 N.am    5  ASP55      -0.3021
     11 N           1.3252   -2.7992    0.1788 N.am    3  LEU33      -0.3025
     12 N          -1.1445   -0.3304   -0.1580 N.am    4  TRP44      -0.3022
     13 NE1        -5.4878   -0.6040   -1.3519 N.ar    4  TRP44      -0.3604
     14 CA          4.6986    1.0737    1.0167 C.3     1  PRO11       0.1023
     15 CB          5.2308    1.7101    2.3018 C.3     1  PRO11      -0.0243
     16 CG          3.9658    2.1721    3.0148 C.3     1  PRO11      -0.0350
     17 CD          3.0750    2.6376    1.8728 C.3     1  PRO11       0.0156
     18 C           4.4199   -0.4427    1.1745 C.2     1  PRO11       0.2342
     19 C           2.9346    1.8847   -0.5345 C.2     5  ASP55       0.2369
     20 CA          3.7460   -2.4899   -0.0827 C.3     2  VAL22       0.1017
     21 CA          1.6448    2.7109   -0.7506 C.3     5  ASP55       0.1047
     22 CB          4.7582   -3.2988   -0.9235 C.3     2  VAL22      -0.0197
     23 CA         -0.0641   -2.5445   -0.1843 C.3     3  LEU33       0.0996
     24 C           2.3396   -2.5058   -0.7104 C.2     2  VAL22       0.2342
     25 CB          1.6048    3.2061   -2.1893 C.3     5  ASP55       0.0138
     26 CA         -1.5539    0.9429    0.4533 C.3     4  TRP44       0.1034
     27 CB         -1.0103   -3.6622    0.2758 C.3     3  LEU33      -0.0236
     28 CG         -0.9439   -4.9528   -0.5679 C.3     3  LEU33      -0.0446
     29 C          -0.3744    1.9336    0.5127 C.2     4  TRP44       0.2343
     30 CB         -2.7190    1.5959   -0.3052 C.3     4  TRP44       0.0013
     31 C          -0.4294   -1.2522    0.5646 C.2     3  LEU33       0.2340
     32 CG1         4.2925   -4.7452   -1.1296 C.3     2  VAL22      -0.0605
     33 CG2         6.1372   -3.3144   -0.2524 C.3     2  VAL22      -0.0605
     34 CG         -3.9128    0.6892   -0.4468 C.ar    4  TRP44      -0.0201
     35 CG          0.4366    4.1648   -2.2977 C.2     5  ASP55       0.0440
     36 CD1         0.3587   -5.7295   -0.3739 C.3     3  LEU33      -0.0626
     37 CD2        -2.1256   -5.8605   -0.2122 C.3     3  LEU33      -0.0626
     38 CD2        -4.7401    0.1669    0.6004 C.ar    4  TRP44       0.0029
     39 CD1        -4.4144    0.1935   -1.6354 C.ar    4  TRP44       0.0060
     40 CE2        -5.7019   -0.6514    0.0055 C.ar    4  TRP44       0.0467
     41 CE3        -4.7563    0.3063    2.0037 C.ar    4  TRP44      -0.0523
     42 CZ2        -6.6692   -1.3457    0.7429 C.ar    4  TRP44      -0.0378
     43 CZ3        -5.7146   -0.3821    2.7566 C.ar    4  TRP44      -0.0611
     44 CH2        -6.6548   -1.1979    2.1329 C.ar    4  TRP44      -0.0598
     45 H           3.9029   -0.4854   -0.8154 H       2  VAL22       0.1495
     46 H           0.3839    1.0714   -1.1970 H       5  ASP55       0.1495
     47 H           1.5367   -2.6521    1.1639 H       3  LEU33       0.1495
     48 H          -1.3200   -0.4629   -1.1465 H       4  TRP44       0.1495
     49 HE1        -6.0485   -1.0878   -2.0383 H       4  TRP44       0.1653
     50 HA          5.4185    1.1998    0.1990 H       1  PRO11       0.0597
     51 HB1         5.8439    2.5851    2.0517 H       1  PRO11       0.0288
     52 HB2         5.8374    1.0393    2.9167 H       1  PRO11       0.0288
     53 HG1         4.1548    2.9615    3.7476 H       1  PRO11       0.0281
     54 HG2         3.4997    1.3274    3.5354 H       1  PRO11       0.0281
     55 HD1         2.0185    2.5027    2.1030 H       1  PRO11       0.0465
     56 HD2         3.2646    3.6874    1.6241 H       1  PRO11       0.0465
     57 HA          3.6947   -2.9132    0.9275 H       2  VAL22       0.0597
     58 HA          1.6034    3.5503   -0.0510 H       5  ASP55       0.0598
     59 HB          4.8688   -2.8349   -1.9125 H       2  VAL22       0.0318
     60 HA         -0.1614   -2.3837   -1.2630 H       3  LEU33       0.0594
     61 HB1         1.4889    2.3858   -2.9081 H       5  ASP55       0.0348
     62 HB2         2.5330    3.7319   -2.4454 H       5  ASP55       0.0348
     63 HA         -1.8367    0.7300    1.4910 H       4  TRP44       0.0598
     64 HB1        -2.0378   -3.2756    0.2286 H       3  LEU33       0.0290
     65 HB2        -0.8267   -3.9018    1.3321 H       3  LEU33       0.0290
     66 HG         -1.0343   -4.6888   -1.6291 H       3  LEU33       0.0296
     67 HB1        -2.3847    1.9006   -1.3054 H       4  TRP44       0.0337
     68 HB2        -3.0289    2.5161    0.2061 H       4  TRP44       0.0337
     69 HG11        4.0748   -5.2334   -0.1734 H       2  VAL22       0.0233
     70 HG12        5.0598   -5.3346   -1.6431 H       2  VAL22       0.0233
     71 HG13        3.3906   -4.7866   -1.7477 H       2  VAL22       0.0233
     72 HG21        6.0836   -3.7517    0.7507 H       2  VAL22       0.0233
     73 HG22        6.5486   -2.3044   -0.1620 H       2  VAL22       0.0233
     74 HG23        6.8485   -3.9059   -0.8392 H       2  VAL22       0.0233
     75 HD11        0.5697   -5.8978    0.6875 H       3  LEU33       0.0232
     76 HD12        1.2052   -5.1997   -0.8140 H       3  LEU33       0.0232
     77 HD13        0.3097   -6.7068   -0.8664 H       3  LEU33       0.0232
     78 HD21       -2.0948   -6.1576    0.8417 H       3  LEU33       0.0232
     79 HD22       -2.1153   -6.7706   -0.8217 H       3  LEU33       0.0232
     80 HD23       -3.0776   -5.3512   -0.3951 H       3  LEU33       0.0232
     81 HD1        -4.0963    0.3540   -2.6579 H       4  TRP44       0.0810
     82 HE3        -4.0307    0.9423    2.5027 H       4  TRP44       0.0624
     83 HZ2        -7.4060   -1.9769    0.2584 H       4  TRP44       0.0638
     84 HZ3        -5.7197   -0.2752    3.8382 H       4  TRP44       0.0618
     85 HH2        -7.3906   -1.7248    2.7351 H       4  TRP44       0.0618
@<TRIPOS>BOND
     1     1    18    2
     2     2    19    2
     3     3    24    2
     4     4    29    2
     5     5    31    2
     6     6    35   ar
     7     7    35   ar
     8     8    14    1
     9     8    17    1
    10     8    19   am
    11     9    18   am
    12     9    20    1
    13    10    21    1
    14    10    29   am
    15    11    23    1
    16    11    24   am
    17    12    26    1
    18    12    31   am
    19    13    39   ar
    20    13    40   ar
    21    14    15    1
    22    14    18    1
    23    15    16    1
    24    16    17    1
    25    19    21    1
    26    20    22    1
    27    20    24    1
    28    21    25    1
    29    22    32    1
    30    22    33    1
    31    23    27    1
    32    23    31    1
    33    25    35    1
    34    26    29    1
    35    26    30    1
    36    27    28    1
    37    28    36    1
    38    28    37    1
    39    30    34    1
    40    34    38   ar
    41    34    39   ar
    42    38    40   ar
    43    38    41   ar
    44    40    42   ar
    45    41    43   ar
    46    42    44   ar
    47    43    44   ar
    48     9    45    1
    49    10    46    1
    50    11    47    1
    51    12    48    1
    52    13    49    1
    53    14    50    1
    54    15    51    1
    55    15    52    1
    56    16    53    1
    57    16    54    1
    58    17    55    1
    59    17    56    1
    60    20    57    1
    61    21    58    1
    62    22    59    1
    63    23    60    1
    64    25    61    1
    65    25    62    1
    66    26    63    1
    67    27    64    1
    68    27    65    1
    69    28    66    1
    70    30    67    1
    71    30    68    1
    72    32    69    1
    73    32    70    1
    74    32    71    1
    75    33    72    1
    76    33    73    1
    77    33    74    1
    78    36    75    1
    79    36    76    1
    80    36    77    1
    81    37    78    1
    82    37    79    1
    83    37    80    1
    84    39    81    1
    85    41    82    1
    86    42    83    1
    87    43    84    1
    88    44    85    1
