@<TRIPOS>MOLECULE
104865
 68 71 0 0 0
SMALL
GASTEIGER

@<TRIPOS>ATOM
      1 S          -4.0981    3.6343   -0.3838 S.O2    1  LIG11       0.0736
      2 O          -4.4051    4.9541    0.1315 O.2     1  LIG11      -0.1499
      3 O          -4.7785    3.1189   -1.5514 O.2     1  LIG11      -0.1499
      4 O          -5.3020    0.3732   -0.6376 O.3     1  LIG11      -0.4435
      5 O          -3.7532   -2.0415   -0.4882 O.3     1  LIG11      -0.4715
      6 O          -7.6296   -0.8642   -1.0833 O.3     1  LIG11      -0.4914
      7 O          -3.8113   -5.0211   -0.6599 O.3     1  LIG11      -0.3917
      8 N          -4.2937    2.5624    0.8994 N.pl3   1  LIG11      -0.1963
      9 N          -2.5281    1.2961    1.5182 N.ar    1  LIG11      -0.2044
     10 N          -2.1767   -0.9477    0.8224 N.ar    1  LIG11      -0.1866
     11 N           0.1272   -1.0384    2.4045 N.ar    1  LIG11      -0.2331
     12 N           0.0231    1.3388    2.6162 N.ar    1  LIG11      -0.2331
     13 C           1.9360    3.3911   -1.4651 C.3     1  LIG11      -0.0127
     14 C           0.4167    3.4627   -1.2292 C.ar    1  LIG11      -0.0419
     15 C           2.4610    4.7989   -1.8130 C.3     1  LIG11      -0.0560
     16 C           2.6478    2.8793   -0.1929 C.3     1  LIG11      -0.0560
     17 C           2.3436    2.4443   -2.6173 C.3     1  LIG11      -0.0560
     18 C          -0.0969    4.1896   -0.1338 C.ar    1  LIG11      -0.0562
     19 C          -0.5074    2.8378   -2.0843 C.ar    1  LIG11      -0.0562
     20 C          -2.3537    3.5955   -0.7241 C.ar    1  LIG11       0.1086
     21 C          -1.4691    4.2596    0.1210 C.ar    1  LIG11      -0.0348
     22 C          -1.8814    2.9094   -1.8422 C.ar    1  LIG11      -0.0348
     23 C          -3.6561    1.3008    0.7938 C.ar    1  LIG11       0.1883
     24 C          -4.1124    0.2508    0.0235 C.ar    1  LIG11       0.2307
     25 C          -3.3197   -0.8794    0.1078 C.ar    1  LIG11       0.2642
     26 C          -1.7989    0.1625    1.4903 C.ar    1  LIG11       0.2027
     27 C          -5.4698   -0.2597   -1.8517 C.ar    1  LIG11       0.1702
     28 C          -0.4918    0.1513    2.2108 C.ar    1  LIG11       0.1978
     29 C          -2.7073   -2.8919   -0.9764 C.3     1  LIG11       0.1143
     30 C          -6.6963   -0.8944   -2.0885 C.ar    1  LIG11       0.1621
     31 C          -4.4980   -0.2233   -2.8595 C.ar    1  LIG11      -0.0157
     32 C          -6.8997   -1.5763   -3.2924 C.ar    1  LIG11      -0.0163
     33 C          -2.7228   -4.2117   -0.2128 C.3     1  LIG11       0.0783
     34 C          -4.7143   -0.8896   -4.0658 C.ar    1  LIG11      -0.0581
     35 C          -5.9082   -1.5763   -4.2763 C.ar    1  LIG11      -0.0581
     36 C           1.3133   -1.0089    3.0399 C.ar    1  LIG11       0.0315
     37 C           1.2168    1.3051    3.2348 C.ar    1  LIG11       0.0315
     38 C           1.9135    0.1468    3.4769 C.ar    1  LIG11      -0.0254
     39 C          -8.9644   -0.6678   -1.5397 C.3     1  LIG11       0.0790
     40 H          -3.8973   -5.7566   -0.0308 H       1  LIG11       0.2095
     41 H          -4.0567    3.0246    1.7747 H       1  LIG11       0.1754
     42 H           2.2938    5.5133   -0.9993 H       1  LIG11       0.0238
     43 H           3.5386    4.7810   -2.0127 H       1  LIG11       0.0238
     44 H           1.9632    5.1960   -2.7058 H       1  LIG11       0.0238
     45 H           2.5214    3.5572    0.6579 H       1  LIG11       0.0238
     46 H           2.2616    1.8977    0.1059 H       1  LIG11       0.0238
     47 H           3.7267    2.7769   -0.3582 H       1  LIG11       0.0238
     48 H           1.9387    2.7780   -3.5796 H       1  LIG11       0.0238
     49 H           3.4337    2.4029   -2.7281 H       1  LIG11       0.0238
     50 H           1.9962    1.4200   -2.4370 H       1  LIG11       0.0238
     51 H           0.5729    4.7129    0.5452 H       1  LIG11       0.0621
     52 H          -0.1845    2.2824   -2.9606 H       1  LIG11       0.0621
     53 H          -1.8308    4.8188    0.9802 H       1  LIG11       0.0637
     54 H          -2.5699    2.4270   -2.5306 H       1  LIG11       0.0637
     55 H          -2.9238   -3.0739   -2.0353 H       1  LIG11       0.0720
     56 H          -1.7141   -2.4306   -0.9288 H       1  LIG11       0.0720
     57 H          -3.5659    0.3087   -2.7115 H       1  LIG11       0.0655
     58 H          -7.8148   -2.1303   -3.4735 H       1  LIG11       0.0655
     59 H          -2.8377   -4.0446    0.8625 H       1  LIG11       0.0591
     60 H          -1.8016   -4.7697   -0.4028 H       1  LIG11       0.0591
     61 H          -3.9491   -0.8800   -4.8374 H       1  LIG11       0.0619
     62 H          -6.0692   -2.1132   -5.2074 H       1  LIG11       0.0619
     63 H           1.7825   -1.9770    3.1900 H       1  LIG11       0.0831
     64 H           1.6094    2.2717    3.5379 H       1  LIG11       0.0831
     65 H           2.8706    0.1445    3.9792 H       1  LIG11       0.0648
     66 H          -9.5587   -0.3119   -0.6927 H       1  LIG11       0.0660
     67 H          -9.0209    0.0909   -2.3290 H       1  LIG11       0.0660
     68 H          -9.3981   -1.6137   -1.8786 H       1  LIG11       0.0660
@<TRIPOS>BOND
     1     1     2    2
     2     1     3    2
     3     1     8    1
     4     1    20    1
     5     4    24    1
     6     4    27    1
     7     5    25    1
     8     5    29    1
     9     6    30    1
    10     6    39    1
    11     7    33    1
    12     8    23    1
    13     9    23   ar
    14     9    26   ar
    15    10    25   ar
    16    10    26   ar
    17    11    28   ar
    18    11    36   ar
    19    12    28   ar
    20    12    37   ar
    21    13    14    1
    22    13    15    1
    23    13    16    1
    24    13    17    1
    25    14    18   ar
    26    14    19   ar
    27    18    21   ar
    28    19    22   ar
    29    20    21   ar
    30    20    22   ar
    31    23    24   ar
    32    24    25   ar
    33    26    28    1
    34    27    30   ar
    35    27    31   ar
    36    29    33    1
    37    30    32   ar
    38    31    34   ar
    39    32    35   ar
    40    34    35   ar
    41    36    38   ar
    42    37    38   ar
    43     7    40    1
    44     8    41    1
    45    15    42    1
    46    15    43    1
    47    15    44    1
    48    16    45    1
    49    16    46    1
    50    16    47    1
    51    17    48    1
    52    17    49    1
    53    17    50    1
    54    18    51    1
    55    19    52    1
    56    21    53    1
    57    22    54    1
    58    29    55    1
    59    29    56    1
    60    31    57    1
    61    32    58    1
    62    33    59    1
    63    33    60    1
    64    34    61    1
    65    35    62    1
    66    36    63    1
    67    37    64    1
    68    38    65    1
    69    39    66    1
    70    39    67    1
    71    39    68    1
@<TRIPOS>MOLECULE
16219006
 85 88 0 0 0
SMALL
GASTEIGER

@<TRIPOS>ATOM
      1 O           4.1257   -1.0934    2.2518 O.2     1  PRO11      -0.2738
      2 O           3.0217    0.9162   -1.3296 O.2     5  ASP55      -0.2735
      3 O           2.0702   -2.4272   -1.9168 O.2     2  VAL22      -0.2738
      4 O          -0.4682    3.0047    1.2475 O.2     4  TRP44      -0.2738
      5 O          -0.3097   -1.0292    1.7359 O.2     3  LEU33      -0.2738
      6 OD1         3.7715    4.3543   -1.2179 O.co2   5  ASP55      -0.5497
      7 OD2         2.6118    5.5289   -2.7905 O.co2   5  ASP55      -0.5497
      8 N           3.3970    1.7301    0.7543 N.am    1  PRO11      -0.2884
      9 N           4.1017   -1.2568   -0.0318 N.am    2  VAL22      -0.3022
     10 N           0.4147    1.9996   -0.6209 N.am    5  ASP55      -0.3021
     11 N           1.2093   -2.7309    0.1826 N.am    3  LEU33      -0.3025
     12 N          -1.1729   -0.2013   -0.2188 N.am    4  TRP44      -0.3022
     13 NE1        -5.7009   -0.5518    0.0431 N.ar    4  TRP44      -0.3604
     14 CA          4.6053    0.9316    0.9475 C.3     1  PRO11       0.1023
     15 CB          5.2793    1.5497    2.1765 C.3     1  PRO11      -0.0243
     16 CG          4.1270    2.1972    2.9347 C.3     1  PRO11      -0.0350
     17 CD          3.2354    2.7075    1.8160 C.3     1  PRO11       0.0156
     18 C           4.2623   -0.5627    1.1510 C.2     1  PRO11       0.2342
     19 C           2.7884    1.7915   -0.4832 C.2     5  ASP55       0.2369
     20 CA          3.6485   -2.6430   -0.0715 C.3     2  VAL22       0.1017
     21 CA          1.6399    2.8149   -0.6915 C.3     5  ASP55       0.1047
     22 CB          4.6073   -3.5350   -0.8898 C.3     2  VAL22      -0.0197
     23 CA         -0.1613   -2.4383   -0.2260 C.3     3  LEU33       0.0996
     24 C           2.2486   -2.6058   -0.7132 C.2     2  VAL22       0.2342
     25 CB          1.7284    3.4838   -2.0529 C.3     5  ASP55       0.0138
     26 CA         -1.6169    1.0583    0.3876 C.3     4  TRP44       0.1034
     27 CB         -1.0896   -3.6003    0.1446 C.3     3  LEU33      -0.0236
     28 CG         -2.5543   -3.4278   -0.3065 C.3     3  LEU33      -0.0446
     29 C          -0.4720    2.0852    0.4323 C.2     4  TRP44       0.2343
     30 CB         -2.7939    1.6767   -0.3808 C.3     4  TRP44       0.0013
     31 C          -0.5457   -1.1622    0.5356 C.2     3  LEU33       0.2340
     32 CG1         4.0800   -4.9731   -0.9820 C.3     2  VAL22      -0.0605
     33 CG2         6.0078   -3.5595   -0.2664 C.3     2  VAL22      -0.0605
     34 CG         -3.9726    0.7516   -0.4926 C.ar    4  TRP44      -0.0201
     35 CG          2.8110    4.5541   -2.0126 C.2     5  ASP55       0.0440
     36 CD1        -2.6896   -3.3250   -1.8264 C.3     3  LEU33      -0.0626
     37 CD2        -3.3954   -4.6011    0.2035 C.3     3  LEU33      -0.0626
     38 CD2        -4.5011    0.1697   -1.6906 C.ar    4  TRP44       0.0029
     39 CD1        -4.7483    0.2871    0.5522 C.ar    4  TRP44       0.0060
     40 CE2        -5.5757   -0.6410   -1.3231 C.ar    4  TRP44       0.0467
     41 CE3        -4.1618    0.2533   -3.0570 C.ar    4  TRP44      -0.0523
     42 CZ2        -6.3273   -1.3725   -2.2508 C.ar    4  TRP44      -0.0378
     43 CZ3        -4.9032   -0.4703   -3.9981 C.ar    4  TRP44      -0.0611
     44 CH2        -5.9698   -1.2711   -3.5983 C.ar    4  TRP44      -0.0598
     45 H           3.8976   -0.6727   -0.8519 H       2  VAL22       0.1495
     46 H           0.4555    1.1266   -1.1315 H       5  ASP55       0.1495
     47 H           1.4231   -2.5459    1.1616 H       3  LEU33       0.1495
     48 H          -1.3187   -0.3429   -1.2110 H       4  TRP44       0.1495
     49 HE1        -6.3983   -1.0386    0.5879 H       4  TRP44       0.1653
     50 HA          5.2618    1.0215    0.0735 H       1  PRO11       0.0597
     51 HB1         5.9805    2.3304    1.8548 H       1  PRO11       0.0288
     52 HB2         5.8342    0.8334    2.7900 H       1  PRO11       0.0288
     53 HG1         4.4539    2.9936    3.6080 H       1  PRO11       0.0281
     54 HG2         3.5971    1.4416    3.5266 H       1  PRO11       0.0281
     55 HD1         2.1894    2.7817    2.1233 H       1  PRO11       0.0465
     56 HD2         3.5786    3.6812    1.4518 H       1  PRO11       0.0465
     57 HA          3.5684   -3.0391    0.9479 H       2  VAL22       0.0597
     58 HA          1.6148    3.5683    0.0984 H       5  ASP55       0.0598
     59 HB          4.6992   -3.1394   -1.9099 H       2  VAL22       0.0318
     60 HA         -0.1889   -2.2506   -1.3027 H       3  LEU33       0.0594
     61 HB1         0.7696    3.9526   -2.3067 H       5  ASP55       0.0348
     62 HB2         1.9678    2.7720   -2.8507 H       5  ASP55       0.0348
     63 HA         -1.9040    0.8506    1.4261 H       4  TRP44       0.0598
     64 HB1        -1.0702   -3.7435    1.2343 H       3  LEU33       0.0290
     65 HB2        -0.6876   -4.5266   -0.2875 H       3  LEU33       0.0290
     66 HG         -2.9628   -2.5138    0.1404 H       3  LEU33       0.0296
     67 HB1        -2.4652    1.9776   -1.3839 H       4  TRP44       0.0337
     68 HB2        -3.1172    2.6000    0.1182 H       4  TRP44       0.0337
     69 HG11        3.9352   -5.4059    0.0145 H       2  VAL22       0.0233
     70 HG12        4.7826   -5.6109   -1.5279 H       2  VAL22       0.0233
     71 HG13        3.1242   -5.0169   -1.5116 H       2  VAL22       0.0233
     72 HG21        5.9750   -3.9237    0.7670 H       2  VAL22       0.0233
     73 HG22        6.4598   -2.5617   -0.2612 H       2  VAL22       0.0233
     74 HG23        6.6739   -4.2178   -0.8340 H       2  VAL22       0.0233
     75 HD11       -2.2132   -4.1758   -2.3256 H       3  LEU33       0.0232
     76 HD12       -2.2336   -2.4076   -2.2088 H       3  LEU33       0.0232
     77 HD13       -3.7431   -3.3101   -2.1227 H       3  LEU33       0.0232
     78 HD21       -3.0559   -5.5497   -0.2254 H       3  LEU33       0.0232
     79 HD22       -4.4495   -4.4668   -0.0615 H       3  LEU33       0.0232
     80 HD23       -3.3345   -4.6796    1.2942 H       3  LEU33       0.0232
     81 HD1        -4.6916    0.4745    1.6166 H       4  TRP44       0.0810
     82 HE3        -3.3371    0.8792   -3.3863 H       4  TRP44       0.0624
     83 HZ2        -7.1588   -1.9967   -1.9418 H       4  TRP44       0.0638
     84 HZ3        -4.6429   -0.4010   -5.0518 H       4  TRP44       0.0618
     85 HH2        -6.5345   -1.8245   -4.3451 H       4  TRP44       0.0618
@<TRIPOS>BOND
     1     1    18    2
     2     2    19    2
     3     3    24    2
     4     4    29    2
     5     5    31    2
     6     6    35   ar
     7     7    35   ar
     8     8    14    1
     9     8    17    1
    10     8    19   am
    11     9    18   am
    12     9    20    1
    13    10    21    1
    14    10    29   am
    15    11    23    1
    16    11    24   am
    17    12    26    1
    18    12    31   am
    19    13    39   ar
    20    13    40   ar
    21    14    15    1
    22    14    18    1
    23    15    16    1
    24    16    17    1
    25    19    21    1
    26    20    22    1
    27    20    24    1
    28    21    25    1
    29    22    32    1
    30    22    33    1
    31    23    27    1
    32    23    31    1
    33    25    35    1
    34    26    29    1
    35    26    30    1
    36    27    28    1
    37    28    36    1
    38    28    37    1
    39    30    34    1
    40    34    38   ar
    41    34    39   ar
    42    38    40   ar
    43    38    41   ar
    44    40    42   ar
    45    41    43   ar
    46    42    44   ar
    47    43    44   ar
    48     9    45    1
    49    10    46    1
    50    11    47    1
    51    12    48    1
    52    13    49    1
    53    14    50    1
    54    15    51    1
    55    15    52    1
    56    16    53    1
    57    16    54    1
    58    17    55    1
    59    17    56    1
    60    20    57    1
    61    21    58    1
    62    22    59    1
    63    23    60    1
    64    25    61    1
    65    25    62    1
    66    26    63    1
    67    27    64    1
    68    27    65    1
    69    28    66    1
    70    30    67    1
    71    30    68    1
    72    32    69    1
    73    32    70    1
    74    32    71    1
    75    33    72    1
    76    33    73    1
    77    33    74    1
    78    36    75    1
    79    36    76    1
    80    36    77    1
    81    37    78    1
    82    37    79    1
    83    37    80    1
    84    39    81    1
    85    41    82    1
    86    42    83    1
    87    43    84    1
    88    44    85    1
