@<TRIPOS>MOLECULE
177236
 51 53 0 0 0
SMALL
GASTEIGER

@<TRIPOS>ATOM
      1 O          -2.7396    1.7665    0.6862 O.3     1  LIG11      -0.3632
      2 O          -2.1582   -1.9104   -0.0216 O.3     1  LIG11      -0.4494
      3 O          -1.0058   -1.9551    2.4170 O.co2   1  LIG11      -0.5459
      4 O          -1.5960    0.1871    2.8454 O.co2   1  LIG11      -0.5459
      5 O          -0.4893   -6.1992   -0.5919 O.3     1  LIG11      -0.4794
      6 O           2.0608   -2.4329   -1.8490 O.3     1  LIG11      -0.4794
      7 N          -1.3329   -4.0242   -0.2622 N.ar    1  LIG11      -0.1594
      8 N           0.0109   -2.1495   -0.8669 N.ar    1  LIG11      -0.1594
      9 C          -2.9771    0.3938    0.2598 C.3     1  LIG11       0.1609
     10 C          -1.8226   -0.6239    0.5845 C.3     1  LIG11       0.1791
     11 C          -4.2881   -0.0795    0.9650 C.ar    1  LIG11      -0.0075
     12 C          -3.2501    0.5942   -1.2745 C.ar    1  LIG11      -0.0075
     13 C          -5.0368   -1.1660    0.4705 C.ar    1  LIG11      -0.0554
     14 C          -2.3561    0.1822   -2.2773 C.ar    1  LIG11      -0.0554
     15 C          -4.7636    0.5638    2.1224 C.ar    1  LIG11      -0.0554
     16 C          -4.4033    1.2962   -1.6931 C.ar    1  LIG11      -0.0554
     17 C          -1.4822   -0.8240    2.0937 C.2     1  LIG11       0.0856
     18 C          -1.4369    2.2866    0.4820 C.3     1  LIG11       0.0382
     19 C          -6.2217   -1.5719    1.0907 C.ar    1  LIG11      -0.0614
     20 C          -2.6210    0.4161   -3.6311 C.ar    1  LIG11      -0.0614
     21 C          -5.9512    0.1612    2.7406 C.ar    1  LIG11      -0.0614
     22 C          -4.6716    1.5262   -3.0448 C.ar    1  LIG11      -0.0614
     23 C          -6.6824   -0.9028    2.2214 C.ar    1  LIG11      -0.0617
     24 C          -3.7807    1.0815   -4.0154 C.ar    1  LIG11      -0.0617
     25 C          -1.0782   -2.7082   -0.3157 C.ar    1  LIG11       0.3249
     26 C          -0.3365   -4.8246   -0.6605 C.ar    1  LIG11       0.2240
     27 C           0.9608   -3.0084   -1.2584 C.ar    1  LIG11       0.2240
     28 C           0.8420   -4.3735   -1.1894 C.ar    1  LIG11       0.0617
     29 C          -1.6506   -6.5773    0.1432 C.3     1  LIG11       0.0804
     30 C           3.2268   -2.6663   -1.0653 C.3     1  LIG11       0.0804
     31 H          -0.8950   -0.2343    0.1473 H       1  LIG11       0.0834
     32 H          -4.6927   -1.7093   -0.4068 H       1  LIG11       0.0621
     33 H          -1.4254   -0.3176   -2.0294 H       1  LIG11       0.0621
     34 H          -4.1852    1.3753    2.5644 H       1  LIG11       0.0621
     35 H          -5.1015    1.6742   -0.9471 H       1  LIG11       0.0621
     36 H          -1.4634    3.3530    0.7241 H       1  LIG11       0.0524
     37 H          -1.1187    2.1888   -0.5588 H       1  LIG11       0.0524
     38 H          -0.7040    1.8218    1.1435 H       1  LIG11       0.0524
     39 H          -6.7735   -2.4182    0.6926 H       1  LIG11       0.0618
     40 H          -1.9094    0.0789   -4.3799 H       1  LIG11       0.0618
     41 H          -6.2850    0.6732    3.6366 H       1  LIG11       0.0618
     42 H          -5.5739    2.0586   -3.3310 H       1  LIG11       0.0618
     43 H          -7.5970   -1.2229    2.7094 H       1  LIG11       0.0618
     44 H          -3.9829    1.2615   -5.0666 H       1  LIG11       0.0618
     45 H           1.6063   -5.0482   -1.5407 H       1  LIG11       0.0724
     46 H          -1.6553   -7.6695    0.2155 H       1  LIG11       0.0660
     47 H          -2.5647   -6.2758   -0.3798 H       1  LIG11       0.0660
     48 H          -1.6278   -6.1778    1.1637 H       1  LIG11       0.0660
     49 H           3.9822   -1.9309   -1.3584 H       1  LIG11       0.0660
     50 H           3.6330   -3.6624   -1.2773 H       1  LIG11       0.0660
     51 H           3.0408   -2.5521    0.0097 H       1  LIG11       0.0660
@<TRIPOS>BOND
     1     1     9    1
     2     1    18    1
     3     2    10    1
     4     2    25    1
     5     3    17   ar
     6     4    17   ar
     7     5    26    1
     8     5    29    1
     9     6    27    1
    10     6    30    1
    11     7    25   ar
    12     7    26   ar
    13     8    25   ar
    14     8    27   ar
    15     9    10    1
    16     9    11    1
    17     9    12    1
    18    10    17    1
    19    11    13   ar
    20    11    15   ar
    21    12    14   ar
    22    12    16   ar
    23    13    19   ar
    24    14    20   ar
    25    15    21   ar
    26    16    22   ar
    27    19    23   ar
    28    20    24   ar
    29    21    23   ar
    30    22    24   ar
    31    26    28   ar
    32    27    28   ar
    33    10    31    1
    34    13    32    1
    35    14    33    1
    36    15    34    1
    37    16    35    1
    38    18    36    1
    39    18    37    1
    40    18    38    1
    41    19    39    1
    42    20    40    1
    43    21    41    1
    44    22    42    1
    45    23    43    1
    46    24    44    1
    47    28    45    1
    48    29    46    1
    49    29    47    1
    50    29    48    1
    51    30    49    1
    52    30    50    1
    53    30    51    1
@<TRIPOS>MOLECULE
16219006
 85 88 0 0 0
SMALL
GASTEIGER

@<TRIPOS>ATOM
      1 O           4.5078   -1.0447    2.2428 O.2     1  PRO11      -0.2738
      2 O           3.4143    1.1728   -1.4276 O.2     5  ASP55      -0.2735
      3 O           2.1319   -2.2287   -1.8897 O.2     2  VAL22      -0.2738
      4 O          -0.3367    2.8402    1.3427 O.2     4  TRP44      -0.2738
      5 O          -0.1034   -1.0821    1.7400 O.2     3  LEU33      -0.2738
      6 OD1        -0.6514    3.6383   -2.6695 O.co2   5  ASP55      -0.5497
      7 OD2         0.7080    5.3681   -2.0318 O.co2   5  ASP55      -0.5497
      8 N           3.4723    1.8232    0.7352 N.am    1  PRO11      -0.2884
      9 N           4.1223   -1.0819   -0.0093 N.am    2  VAL22      -0.3022
     10 N           0.5502    1.7781   -0.4940 N.am    5  ASP55      -0.3021
     11 N           1.3252   -2.7992    0.1788 N.am    3  LEU33      -0.3025
     12 N          -1.1445   -0.3304   -0.1580 N.am    4  TRP44      -0.3022
     13 NE1        -5.4878   -0.6040   -1.3519 N.ar    4  TRP44      -0.3604
     14 CA          4.6986    1.0737    1.0167 C.3     1  PRO11       0.1023
     15 CB          5.2308    1.7101    2.3018 C.3     1  PRO11      -0.0243
     16 CG          3.9658    2.1721    3.0148 C.3     1  PRO11      -0.0350
     17 CD          3.0750    2.6376    1.8728 C.3     1  PRO11       0.0156
     18 C           4.4199   -0.4427    1.1745 C.2     1  PRO11       0.2342
     19 C           2.9346    1.8847   -0.5345 C.2     5  ASP55       0.2369
     20 CA          3.7460   -2.4899   -0.0827 C.3     2  VAL22       0.1017
     21 CA          1.6448    2.7109   -0.7506 C.3     5  ASP55       0.1047
     22 CB          4.7582   -3.2988   -0.9235 C.3     2  VAL22      -0.0197
     23 CA         -0.0641   -2.5445   -0.1843 C.3     3  LEU33       0.0996
     24 C           2.3396   -2.5058   -0.7104 C.2     2  VAL22       0.2342
     25 CB          1.6048    3.2061   -2.1893 C.3     5  ASP55       0.0138
     26 CA         -1.5539    0.9429    0.4533 C.3     4  TRP44       0.1034
     27 CB         -1.0103   -3.6622    0.2758 C.3     3  LEU33      -0.0236
     28 CG         -0.9439   -4.9528   -0.5679 C.3     3  LEU33      -0.0446
     29 C          -0.3744    1.9336    0.5127 C.2     4  TRP44       0.2343
     30 CB         -2.7190    1.5959   -0.3052 C.3     4  TRP44       0.0013
     31 C          -0.4294   -1.2522    0.5646 C.2     3  LEU33       0.2340
     32 CG1         4.2925   -4.7452   -1.1296 C.3     2  VAL22      -0.0605
     33 CG2         6.1372   -3.3144   -0.2524 C.3     2  VAL22      -0.0605
     34 CG         -3.9128    0.6892   -0.4468 C.ar    4  TRP44      -0.0201
     35 CG          0.4366    4.1648   -2.2977 C.2     5  ASP55       0.0440
     36 CD1         0.3587   -5.7295   -0.3739 C.3     3  LEU33      -0.0626
     37 CD2        -2.1256   -5.8605   -0.2122 C.3     3  LEU33      -0.0626
     38 CD2        -4.7401    0.1669    0.6004 C.ar    4  TRP44       0.0029
     39 CD1        -4.4144    0.1935   -1.6354 C.ar    4  TRP44       0.0060
     40 CE2        -5.7019   -0.6514    0.0055 C.ar    4  TRP44       0.0467
     41 CE3        -4.7563    0.3063    2.0037 C.ar    4  TRP44      -0.0523
     42 CZ2        -6.6692   -1.3457    0.7429 C.ar    4  TRP44      -0.0378
     43 CZ3        -5.7146   -0.3821    2.7566 C.ar    4  TRP44      -0.0611
     44 CH2        -6.6548   -1.1979    2.1329 C.ar    4  TRP44      -0.0598
     45 H           3.9029   -0.4854   -0.8154 H       2  VAL22       0.1495
     46 H           0.3839    1.0714   -1.1970 H       5  ASP55       0.1495
     47 H           1.5367   -2.6521    1.1639 H       3  LEU33       0.1495
     48 H          -1.3200   -0.4629   -1.1465 H       4  TRP44       0.1495
     49 HE1        -6.0485   -1.0878   -2.0383 H       4  TRP44       0.1653
     50 HA          5.4185    1.1998    0.1990 H       1  PRO11       0.0597
     51 HB1         5.8439    2.5851    2.0517 H       1  PRO11       0.0288
     52 HB2         5.8374    1.0393    2.9167 H       1  PRO11       0.0288
     53 HG1         4.1548    2.9615    3.7476 H       1  PRO11       0.0281
     54 HG2         3.4997    1.3274    3.5354 H       1  PRO11       0.0281
     55 HD1         2.0185    2.5027    2.1030 H       1  PRO11       0.0465
     56 HD2         3.2646    3.6874    1.6241 H       1  PRO11       0.0465
     57 HA          3.6947   -2.9132    0.9275 H       2  VAL22       0.0597
     58 HA          1.6034    3.5503   -0.0510 H       5  ASP55       0.0598
     59 HB          4.8688   -2.8349   -1.9125 H       2  VAL22       0.0318
     60 HA         -0.1614   -2.3837   -1.2630 H       3  LEU33       0.0594
     61 HB1         1.4889    2.3858   -2.9081 H       5  ASP55       0.0348
     62 HB2         2.5330    3.7319   -2.4454 H       5  ASP55       0.0348
     63 HA         -1.8367    0.7300    1.4910 H       4  TRP44       0.0598
     64 HB1        -2.0378   -3.2756    0.2286 H       3  LEU33       0.0290
     65 HB2        -0.8267   -3.9018    1.3321 H       3  LEU33       0.0290
     66 HG         -1.0343   -4.6888   -1.6291 H       3  LEU33       0.0296
     67 HB1        -2.3847    1.9006   -1.3054 H       4  TRP44       0.0337
     68 HB2        -3.0289    2.5161    0.2061 H       4  TRP44       0.0337
     69 HG11        4.0748   -5.2334   -0.1734 H       2  VAL22       0.0233
     70 HG12        5.0598   -5.3346   -1.6431 H       2  VAL22       0.0233
     71 HG13        3.3906   -4.7866   -1.7477 H       2  VAL22       0.0233
     72 HG21        6.0836   -3.7517    0.7507 H       2  VAL22       0.0233
     73 HG22        6.5486   -2.3044   -0.1620 H       2  VAL22       0.0233
     74 HG23        6.8485   -3.9059   -0.8392 H       2  VAL22       0.0233
     75 HD11        0.5697   -5.8978    0.6875 H       3  LEU33       0.0232
     76 HD12        1.2052   -5.1997   -0.8140 H       3  LEU33       0.0232
     77 HD13        0.3097   -6.7068   -0.8664 H       3  LEU33       0.0232
     78 HD21       -2.0948   -6.1576    0.8417 H       3  LEU33       0.0232
     79 HD22       -2.1153   -6.7706   -0.8217 H       3  LEU33       0.0232
     80 HD23       -3.0776   -5.3512   -0.3951 H       3  LEU33       0.0232
     81 HD1        -4.0963    0.3540   -2.6579 H       4  TRP44       0.0810
     82 HE3        -4.0307    0.9423    2.5027 H       4  TRP44       0.0624
     83 HZ2        -7.4060   -1.9769    0.2584 H       4  TRP44       0.0638
     84 HZ3        -5.7197   -0.2752    3.8382 H       4  TRP44       0.0618
     85 HH2        -7.3906   -1.7248    2.7351 H       4  TRP44       0.0618
@<TRIPOS>BOND
     1     1    18    2
     2     2    19    2
     3     3    24    2
     4     4    29    2
     5     5    31    2
     6     6    35   ar
     7     7    35   ar
     8     8    14    1
     9     8    17    1
    10     8    19   am
    11     9    18   am
    12     9    20    1
    13    10    21    1
    14    10    29   am
    15    11    23    1
    16    11    24   am
    17    12    26    1
    18    12    31   am
    19    13    39   ar
    20    13    40   ar
    21    14    15    1
    22    14    18    1
    23    15    16    1
    24    16    17    1
    25    19    21    1
    26    20    22    1
    27    20    24    1
    28    21    25    1
    29    22    32    1
    30    22    33    1
    31    23    27    1
    32    23    31    1
    33    25    35    1
    34    26    29    1
    35    26    30    1
    36    27    28    1
    37    28    36    1
    38    28    37    1
    39    30    34    1
    40    34    38   ar
    41    34    39   ar
    42    38    40   ar
    43    38    41   ar
    44    40    42   ar
    45    41    43   ar
    46    42    44   ar
    47    43    44   ar
    48     9    45    1
    49    10    46    1
    50    11    47    1
    51    12    48    1
    52    13    49    1
    53    14    50    1
    54    15    51    1
    55    15    52    1
    56    16    53    1
    57    16    54    1
    58    17    55    1
    59    17    56    1
    60    20    57    1
    61    21    58    1
    62    22    59    1
    63    23    60    1
    64    25    61    1
    65    25    62    1
    66    26    63    1
    67    27    64    1
    68    27    65    1
    69    28    66    1
    70    30    67    1
    71    30    68    1
    72    32    69    1
    73    32    70    1
    74    32    71    1
    75    33    72    1
    76    33    73    1
    77    33    74    1
    78    36    75    1
    79    36    76    1
    80    36    77    1
    81    37    78    1
    82    37    79    1
    83    37    80    1
    84    39    81    1
    85    41    82    1
    86    42    83    1
    87    43    84    1
    88    44    85    1
