@<TRIPOS>MOLECULE
178103
 66 70 0 0 0
SMALL
GASTEIGER

@<TRIPOS>ATOM
      1 O           2.6877    5.3787   -2.1625 O.co2   1  LIG11      -0.5495
      2 O           2.8996    3.3991   -3.2684 O.co2   1  LIG11      -0.5495
      3 O          -0.6394   -1.7553    0.1487 O.3     1  LIG11      -0.4920
      4 O           3.7065    1.6432    0.8761 O.3     1  LIG11      -0.4893
      5 O          -3.6830    6.1712   -1.8561 O.3     1  LIG11      -0.4526
      6 O          -4.2345    6.3185   -4.2009 O.3     1  LIG11      -0.4526
      7 O           2.4135    4.2675    4.6603 O.3     1  LIG11      -0.4950
      8 O           6.0810    0.3869   -0.1496 O.3     1  LIG11      -0.3917
      9 C           1.1233    3.6792   -1.7142 C.3     1  LIG11       0.0203
     10 C           1.5982    2.5644   -0.7390 C.3     1  LIG11       0.0218
     11 C           0.1256    3.0430   -2.7111 C.3     1  LIG11       0.0184
     12 C           0.5240    1.5095   -0.9035 C.ar    1  LIG11      -0.0320
     13 C          -0.3085    1.7884   -1.9877 C.ar    1  LIG11      -0.0353
     14 C           1.7811    3.0047    0.7157 C.ar    1  LIG11       0.0025
     15 C          -1.0410    3.9358   -3.1201 C.ar    1  LIG11      -0.0356
     16 C           2.3550    4.1947   -2.4539 C.2     1  LIG11       0.0466
     17 C           0.3830    0.3226   -0.1912 C.ar    1  LIG11      -0.0159
     18 C          -1.3149    0.9035   -2.3549 C.ar    1  LIG11      -0.0542
     19 C           2.8638    2.5344    1.4878 C.ar    1  LIG11       0.1278
     20 C          -0.6033   -0.5905   -0.5740 C.ar    1  LIG11       0.1208
     21 C          -1.8139    4.6370   -2.1771 C.ar    1  LIG11      -0.0124
     22 C          -1.4692   -0.2841   -1.6338 C.ar    1  LIG11      -0.0196
     23 C          -1.3833    4.0314   -4.4922 C.ar    1  LIG11      -0.0543
     24 C           0.8451    3.8518    1.3359 C.ar    1  LIG11      -0.0510
     25 C          -2.8573    5.4167   -2.6319 C.ar    1  LIG11       0.1665
     26 C          -2.4593    4.8147   -4.9235 C.ar    1  LIG11      -0.0159
     27 C           3.0325    2.9854    2.8040 C.ar    1  LIG11       0.0221
     28 C           1.0183    4.2942    2.6500 C.ar    1  LIG11      -0.0194
     29 C          -3.1716    5.5020   -3.9672 C.ar    1  LIG11       0.1662
     30 C           2.1303    3.8846    3.3762 C.ar    1  LIG11       0.1236
     31 C          -1.1375   -2.8922   -0.5593 C.3     1  LIG11       0.0893
     32 C          -4.5027    6.7915   -2.8651 C.3     1  LIG11       0.2332
     33 C           4.6067    0.9088    1.7066 C.3     1  LIG11       0.1126
     34 C          -0.6878   -4.1465    0.1848 C.3     1  LIG11      -0.0215
     35 C           5.2371   -0.1837    0.8483 C.3     1  LIG11       0.0783
     36 C           1.9377    5.5619    5.0167 C.3     1  LIG11       0.0788
     37 C          -1.1750   -5.4124   -0.4983 C.3     1  LIG11      -0.0622
     38 H           5.5294    1.0428   -0.6264 H       1  LIG11       0.2095
     39 H           0.6771    4.5304   -1.1924 H       1  LIG11       0.0379
     40 H           2.5331    2.1257   -1.1090 H       1  LIG11       0.0405
     41 H           0.6386    2.7112   -3.6230 H       1  LIG11       0.0404
     42 H           1.0597    0.0877    0.6239 H       1  LIG11       0.0657
     43 H          -1.9566    1.1179   -3.2035 H       1  LIG11       0.0622
     44 H          -1.5996    4.5804   -1.1162 H       1  LIG11       0.0658
     45 H          -2.2623   -0.9619   -1.9289 H       1  LIG11       0.0654
     46 H          -0.7939    3.4906   -5.2309 H       1  LIG11       0.0622
     47 H          -0.0362    4.1849    0.7947 H       1  LIG11       0.0623
     48 H          -2.7132    4.8866   -5.9741 H       1  LIG11       0.0655
     49 H           3.8794    2.6730    3.4045 H       1  LIG11       0.0691
     50 H           0.2686    4.9525    3.0725 H       1  LIG11       0.0654
     51 H          -2.2324   -2.8530   -0.5872 H       1  LIG11       0.0696
     52 H          -0.7410   -2.9229   -1.5823 H       1  LIG11       0.0696
     53 H          -5.5549    6.5938   -2.6296 H       1  LIG11       0.1166
     54 H          -4.3370    7.8749   -2.8373 H       1  LIG11       0.1166
     55 H           5.3892    1.5807    2.0777 H       1  LIG11       0.0720
     56 H           4.0675    0.4402    2.5378 H       1  LIG11       0.0720
     57 H           0.4073   -4.1590    0.2520 H       1  LIG11       0.0295
     58 H          -1.0539   -4.1138    1.2179 H       1  LIG11       0.0295
     59 H           4.4714   -0.7778    0.3402 H       1  LIG11       0.0591
     60 H           5.8503   -0.8471    1.4646 H       1  LIG11       0.0591
     61 H           2.4306    5.8523    5.9492 H       1  LIG11       0.0660
     62 H           2.1933    6.3099    4.2585 H       1  LIG11       0.0660
     63 H           0.8598    5.5425    5.2030 H       1  LIG11       0.0660
     64 H          -0.7926   -5.4776   -1.5217 H       1  LIG11       0.0231
     65 H          -0.8316   -6.2952    0.0490 H       1  LIG11       0.0231
     66 H          -2.2682   -5.4400   -0.5376 H       1  LIG11       0.0231
@<TRIPOS>BOND
     1     1    16   ar
     2     2    16   ar
     3     3    20    1
     4     3    31    1
     5     4    19    1
     6     4    33    1
     7     5    25    1
     8     5    32    1
     9     6    29    1
    10     6    32    1
    11     7    30    1
    12     7    36    1
    13     8    35    1
    14     9    10    1
    15     9    11    1
    16     9    16    1
    17    10    12    1
    18    10    14    1
    19    11    13    1
    20    11    15    1
    21    12    13   ar
    22    12    17   ar
    23    13    18   ar
    24    14    19   ar
    25    14    24   ar
    26    15    21   ar
    27    15    23   ar
    28    17    20   ar
    29    18    22   ar
    30    19    27   ar
    31    20    22   ar
    32    21    25   ar
    33    23    26   ar
    34    24    28   ar
    35    25    29   ar
    36    26    29   ar
    37    27    30   ar
    38    28    30   ar
    39    31    34    1
    40    33    35    1
    41    34    37    1
    42     8    38    1
    43     9    39    1
    44    10    40    1
    45    11    41    1
    46    17    42    1
    47    18    43    1
    48    21    44    1
    49    22    45    1
    50    23    46    1
    51    24    47    1
    52    26    48    1
    53    27    49    1
    54    28    50    1
    55    31    51    1
    56    31    52    1
    57    32    53    1
    58    32    54    1
    59    33    55    1
    60    33    56    1
    61    34    57    1
    62    34    58    1
    63    35    59    1
    64    35    60    1
    65    36    61    1
    66    36    62    1
    67    36    63    1
    68    37    64    1
    69    37    65    1
    70    37    66    1
@<TRIPOS>MOLECULE
16219006
 85 88 0 0 0
SMALL
GASTEIGER

@<TRIPOS>ATOM
      1 O           4.1297   -1.0309    2.2839 O.2     1  PRO11      -0.2738
      2 O           3.1280    0.9893   -1.3325 O.2     5  ASP55      -0.2735
      3 O           2.0597   -2.2796   -1.8408 O.2     2  VAL22      -0.2738
      4 O          -0.5938    3.0218    1.1224 O.2     4  TRP44      -0.2738
      5 O          -0.5720   -1.1304    1.8096 O.2     3  LEU33      -0.2738
      6 OD1         3.1126    4.8746   -3.3224 O.co2   5  ASP55      -0.5497
      7 OD2         3.6080    4.5596   -1.1198 O.co2   5  ASP55      -0.5497
      8 N           3.4199    1.7787    0.7719 N.am    1  PRO11      -0.2884
      9 N           4.1463   -1.1917    0.0007 N.am    2  VAL22      -0.3022
     10 N           0.4613    1.9513   -0.6132 N.am    5  ASP55      -0.3021
     11 N           1.2415   -2.7057    0.2527 N.am    3  LEU33      -0.3025
     12 N          -1.1708   -0.2817   -0.2398 N.am    4  TRP44      -0.3022
     13 NE1        -2.0277    1.6862   -4.1394 N.ar    4  TRP44      -0.3604
     14 CA          4.6329    0.9951    0.9917 C.3     1  PRO11       0.1023
     15 CB          5.2678    1.6168    2.2386 C.3     1  PRO11      -0.0243
     16 CG          4.0842    2.2303    2.9774 C.3     1  PRO11      -0.0350
     17 CD          3.2040    2.7330    1.8451 C.3     1  PRO11       0.0156
     18 C           4.2887   -0.4988    1.1865 C.2     1  PRO11       0.2342
     19 C           2.8357    1.8394   -0.4776 C.2     5  ASP55       0.2369
     20 CA          3.6764   -2.5708   -0.0416 C.3     2  VAL22       0.1017
     21 CA          1.6503    2.8145   -0.6902 C.3     5  ASP55       0.1047
     22 CB          4.6052   -3.4637   -0.8932 C.3     2  VAL22      -0.0197
     23 CA         -0.1394   -2.4940   -0.1511 C.3     3  LEU33       0.0996
     24 C           2.2645   -2.5136   -0.6508 C.2     2  VAL22       0.2342
     25 CB          1.7186    3.4698   -2.0596 C.3     5  ASP55       0.0138
     26 CA         -1.6401    1.0116    0.2713 C.3     4  TRP44       0.1034
     27 CB         -1.0293   -3.6929    0.1977 C.3     3  LEU33      -0.0236
     28 CG         -0.6846   -4.9894   -0.5662 C.3     3  LEU33      -0.0446
     29 C          -0.5192    2.0732    0.3425 C.2     4  TRP44       0.2343
     30 CB         -2.8427    1.5253   -0.5390 C.3     4  TRP44       0.0013
     31 C          -0.6387   -1.2422    0.5873 C.2     3  LEU33       0.2340
     32 CG1         4.0608   -4.8956   -0.9887 C.3     2  VAL22      -0.0605
     33 CG2         6.0199   -3.5085   -0.3041 C.3     2  VAL22      -0.0605
     34 CG         -2.5505    1.8551   -1.9768 C.ar    4  TRP44      -0.0201
     35 CG          2.9313    4.3856   -2.1710 C.2     5  ASP55       0.0440
     36 CD1        -1.6237   -6.1142   -0.1213 C.3     3  LEU33      -0.0626
     37 CD2        -0.7720   -4.8245   -2.0849 C.3     3  LEU33      -0.0626
     38 CD2        -2.4502    3.1719   -2.5360 C.ar    4  TRP44       0.0029
     39 CD1        -2.3362    0.9665   -3.0154 C.ar    4  TRP44       0.0060
     40 CE2        -2.1249    3.0320   -3.8845 C.ar    4  TRP44       0.0467
     41 CE3        -2.5896    4.4742   -2.0130 C.ar    4  TRP44      -0.0523
     42 CZ2        -1.9274    4.1252   -4.7357 C.ar    4  TRP44      -0.0378
     43 CZ3        -2.4086    5.5790   -2.8526 C.ar    4  TRP44      -0.0611
     44 CH2        -2.0798    5.4040   -4.1941 C.ar    4  TRP44      -0.0598
     45 H           3.9555   -0.6058   -0.8217 H       2  VAL22       0.1495
     46 H           0.4890    1.1350   -1.2055 H       5  ASP55       0.1495
     47 H           1.4538   -2.5575    1.2374 H       3  LEU33       0.1495
     48 H          -0.9614   -0.3330   -1.2285 H       4  TRP44       0.1495
     49 HE1        -1.7677    1.2962   -5.0346 H       4  TRP44       0.1653
     50 HA          5.3093    1.0894    0.1332 H       1  PRO11       0.0597
     51 HB1         5.9572    2.4158    1.9382 H       1  PRO11       0.0288
     52 HB2         5.8253    0.9068    2.8562 H       1  PRO11       0.0288
     53 HG1         4.3788    3.0265    3.6664 H       1  PRO11       0.0281
     54 HG2         3.5590    1.4572    3.5503 H       1  PRO11       0.0281
     55 HD1         2.1488    2.7715    2.1267 H       1  PRO11       0.0465
     56 HD2         3.5277    3.7219    1.5042 H       1  PRO11       0.0465
     57 HA          3.6168   -2.9776    0.9748 H       2  VAL22       0.0597
     58 HA          1.5946    3.5734    0.0926 H       5  ASP55       0.0598
     59 HB          4.6757   -3.0580   -1.9109 H       2  VAL22       0.0318
     60 HA         -0.1942   -2.3018   -1.2262 H       3  LEU33       0.0594
     61 HB1         0.8173    4.0697   -2.2342 H       5  ASP55       0.0348
     62 HB2         1.7681    2.7191   -2.8581 H       5  ASP55       0.0348
     63 HA         -1.9683    0.8489    1.3057 H       4  TRP44       0.0598
     64 HB1        -2.0766   -3.4263    0.0007 H       3  LEU33       0.0290
     65 HB2        -0.9656   -3.8917    1.2765 H       3  LEU33       0.0290
     66 HG          0.3395   -5.2906   -0.3132 H       3  LEU33       0.0296
     67 HB1        -3.2534    2.4119   -0.0407 H       4  TRP44       0.0337
     68 HB2        -3.6386    0.7687   -0.5182 H       4  TRP44       0.0337
     69 HG11        3.9329   -5.3380    0.0055 H       2  VAL22       0.0233
     70 HG12        4.7444   -5.5350   -1.5574 H       2  VAL22       0.0233
     71 HG13        3.0923   -4.9240   -1.4983 H       2  VAL22       0.0233
     72 HG21        6.0084   -3.8855    0.7245 H       2  VAL22       0.0233
     73 HG22        6.4806   -2.5160   -0.2981 H       2  VAL22       0.0233
     74 HG23        6.6659   -4.1659   -0.8964 H       2  VAL22       0.0233
     75 HD11       -2.6661   -5.8795   -0.3632 H       3  LEU33       0.0232
     76 HD12       -1.5533   -6.2774    0.9588 H       3  LEU33       0.0232
     77 HD13       -1.3658   -7.0557   -0.6183 H       3  LEU33       0.0232
     78 HD21       -1.7462   -4.4248   -2.3862 H       3  LEU33       0.0232
     79 HD22       -0.6299   -5.7859   -2.5904 H       3  LEU33       0.0232
     80 HD23        0.0041   -4.1511   -2.4599 H       3  LEU33       0.0232
     81 HD1        -2.3460   -0.1139   -3.0517 H       4  TRP44       0.0810
     82 HE3        -2.8154    4.6281   -0.9620 H       4  TRP44       0.0624
     83 HZ2        -1.6422    3.9939   -5.7740 H       4  TRP44       0.0638
     84 HZ3        -2.4997    6.5822   -2.4450 H       4  TRP44       0.0618
     85 HH2        -1.9126    6.2744   -4.8236 H       4  TRP44       0.0618
@<TRIPOS>BOND
     1     1    18    2
     2     2    19    2
     3     3    24    2
     4     4    29    2
     5     5    31    2
     6     6    35   ar
     7     7    35   ar
     8     8    14    1
     9     8    17    1
    10     8    19   am
    11     9    18   am
    12     9    20    1
    13    10    21    1
    14    10    29   am
    15    11    23    1
    16    11    24   am
    17    12    26    1
    18    12    31   am
    19    13    39   ar
    20    13    40   ar
    21    14    15    1
    22    14    18    1
    23    15    16    1
    24    16    17    1
    25    19    21    1
    26    20    22    1
    27    20    24    1
    28    21    25    1
    29    22    32    1
    30    22    33    1
    31    23    27    1
    32    23    31    1
    33    25    35    1
    34    26    29    1
    35    26    30    1
    36    27    28    1
    37    28    36    1
    38    28    37    1
    39    30    34    1
    40    34    38   ar
    41    34    39   ar
    42    38    40   ar
    43    38    41   ar
    44    40    42   ar
    45    41    43   ar
    46    42    44   ar
    47    43    44   ar
    48     9    45    1
    49    10    46    1
    50    11    47    1
    51    12    48    1
    52    13    49    1
    53    14    50    1
    54    15    51    1
    55    15    52    1
    56    16    53    1
    57    16    54    1
    58    17    55    1
    59    17    56    1
    60    20    57    1
    61    21    58    1
    62    22    59    1
    63    23    60    1
    64    25    61    1
    65    25    62    1
    66    26    63    1
    67    27    64    1
    68    27    65    1
    69    28    66    1
    70    30    67    1
    71    30    68    1
    72    32    69    1
    73    32    70    1
    74    32    71    1
    75    33    72    1
    76    33    73    1
    77    33    74    1
    78    36    75    1
    79    36    76    1
    80    36    77    1
    81    37    78    1
    82    37    79    1
    83    37    80    1
    84    39    81    1
    85    41    82    1
    86    42    83    1
    87    43    84    1
    88    44    85    1
