@<TRIPOS>MOLECULE
9843631
 45 48 0 0 0
SMALL
GASTEIGER

@<TRIPOS>ATOM
      1 S          -1.6744   -0.4282   -0.3334 S.O2    1  LIG11       0.0752
      2 O           0.2872    0.2956    2.0242 O.2     1  LIG11      -0.3377
      3 O          -2.2232   -1.1550    0.7857 O.2     1  LIG11      -0.1499
      4 O          -0.6522   -1.0101   -1.1780 O.2     1  LIG11      -0.1499
      5 O          -7.6273   -1.7754    4.1879 O.2     1  LIG11      -0.4436
      6 N          -1.1066    1.0954    0.1564 N.pl3   1  LIG11      -0.1831
      7 N           1.5708    0.4955    2.5009 N.ar    1  LIG11      -0.0810
      8 N          -6.1382   -0.5476    5.3596 N.ar    1  LIG11      -0.2175
      9 C          -2.9827    0.1250   -1.4281 C.ar    1  LIG11       0.1162
     10 C          -4.3141    0.3228   -1.0175 C.ar    1  LIG11       0.0087
     11 C          -4.8620    0.0171    0.3150 C.ar    1  LIG11      -0.0160
     12 C          -2.5906    0.3948   -2.7580 C.ar    1  LIG11      -0.0345
     13 C           0.1081    1.0135    0.8845 C.ar    1  LIG11       0.2399
     14 C          -5.2122    0.8321   -1.9835 C.ar    1  LIG11      -0.0521
     15 C           1.2788    1.6662    0.5611 C.ar    1  LIG11       0.0350
     16 C          -4.4676    0.7064    1.4697 C.ar    1  LIG11      -0.0533
     17 C          -5.8493   -0.9746    0.4476 C.ar    1  LIG11      -0.0533
     18 C          -3.5050    0.8878   -3.6841 C.ar    1  LIG11      -0.0599
     19 C          -4.8168    1.1142   -3.2940 C.ar    1  LIG11      -0.0611
     20 C          -5.9892   -0.6151    2.8484 C.ar    1  LIG11       0.0369
     21 C           2.1615    1.3072    1.6179 C.ar    1  LIG11       0.0854
     22 C          -5.0108    0.3807    2.7212 C.ar    1  LIG11      -0.0489
     23 C          -6.4095   -1.2818    1.6920 C.ar    1  LIG11      -0.0489
     24 C           1.6037    2.4893   -0.6262 C.3     1  LIG11      -0.0330
     25 C           3.5794    1.6995    1.7978 C.3     1  LIG11      -0.0188
     26 C          -6.5341   -0.9432    4.1630 C.ar    1  LIG11       0.2271
     27 C          -7.9147   -1.9120    5.5111 C.ar    1  LIG11       0.1125
     28 C          -7.0024   -1.1749    6.2205 C.ar    1  LIG11       0.0663
     29 H          -1.0928    1.7507   -0.6193 H       1  LIG11       0.1768
     30 H          -1.5654    0.2214   -3.0831 H       1  LIG11       0.0637
     31 H          -6.2523    1.0133   -1.7099 H       1  LIG11       0.0624
     32 H          -3.7122    1.4868    1.4208 H       1  LIG11       0.0624
     33 H          -6.1876   -1.5295   -0.4261 H       1  LIG11       0.0624
     34 H          -3.1940    1.0916   -4.7060 H       1  LIG11       0.0618
     35 H          -5.5404    1.5005   -4.0078 H       1  LIG11       0.0618
     36 H          -4.6547    0.9061    3.6064 H       1  LIG11       0.0625
     37 H          -7.1654   -2.0622    1.7471 H       1  LIG11       0.0625
     38 H           0.7391    2.6375   -1.2792 H       1  LIG11       0.0280
     39 H           2.3820    1.9973   -1.2199 H       1  LIG11       0.0280
     40 H           1.9709    3.4751   -0.3264 H       1  LIG11       0.0280
     41 H           3.9219    1.5181    2.8214 H       1  LIG11       0.0294
     42 H           3.7158    2.7648    1.5843 H       1  LIG11       0.0294
     43 H           4.2176    1.1287    1.1158 H       1  LIG11       0.0294
     44 H          -8.7557   -2.5408    5.7614 H       1  LIG11       0.1046
     45 H          -6.9219   -1.0607    7.2921 H       1  LIG11       0.0862
@<TRIPOS>BOND
     1     1     3    2
     2     1     4    2
     3     1     6    1
     4     1     9    1
     5     2     7   ar
     6     2    13   ar
     7     5    26   ar
     8     5    27   ar
     9     6    13    1
    10     7    21   ar
    11     8    26   ar
    12     8    28   ar
    13     9    10   ar
    14     9    12   ar
    15    10    11    1
    16    10    14   ar
    17    11    16   ar
    18    11    17   ar
    19    12    18   ar
    20    13    15   ar
    21    14    19   ar
    22    15    21   ar
    23    15    24    1
    24    16    22   ar
    25    17    23   ar
    26    18    19   ar
    27    20    22   ar
    28    20    23   ar
    29    20    26    1
    30    21    25    1
    31    27    28   ar
    32     6    29    1
    33    12    30    1
    34    14    31    1
    35    16    32    1
    36    17    33    1
    37    18    34    1
    38    19    35    1
    39    22    36    1
    40    23    37    1
    41    24    38    1
    42    24    39    1
    43    24    40    1
    44    25    41    1
    45    25    42    1
    46    25    43    1
    47    27    44    1
    48    28    45    1
@<TRIPOS>MOLECULE
16219006
 85 88 0 0 0
SMALL
GASTEIGER

@<TRIPOS>ATOM
      1 O           4.3737   -1.1667    2.2318 O.2     1  PRO11      -0.2738
      2 O           3.4242    1.1299   -1.4708 O.2     5  ASP55      -0.2735
      3 O           2.0781   -2.7825   -1.9261 O.2     2  VAL22      -0.2738
      4 O          -0.4036    3.0936    1.2629 O.2     4  TRP44      -0.2738
      5 O          -0.3573   -1.0135    1.7649 O.2     3  LEU33      -0.2738
      6 OD1         0.3920    1.4322   -2.9014 O.co2   5  ASP55      -0.5497
      7 OD2         1.5011    2.7468   -4.4132 O.co2   5  ASP55      -0.5497
      8 N           3.4857    1.7146    0.7110 N.am    1  PRO11      -0.2884
      9 N           4.0333   -1.2436   -0.0276 N.am    2  VAL22      -0.3022
     10 N           0.5527    1.8984   -0.4351 N.am    5  ASP55      -0.3021
     11 N           1.2257   -2.6171    0.1935 N.am    3  LEU33      -0.3025
     12 N          -1.1887   -0.1341   -0.1837 N.am    4  TRP44      -0.3022
     13 NE1        -5.4711   -0.5120   -1.3653 N.ar    4  TRP44      -0.3604
     14 CA          4.6804    0.9123    0.9726 C.3     1  PRO11       0.1023
     15 CB          5.2558    1.5304    2.2496 C.3     1  PRO11      -0.0243
     16 CG          4.0189    2.0291    2.9883 C.3     1  PRO11      -0.0350
     17 CD          3.1212    2.5223    1.8644 C.3     1  PRO11       0.0156
     18 C           4.3380   -0.5891    1.1464 C.2     1  PRO11       0.2342
     19 C           2.9542    1.8214   -0.5629 C.2     5  ASP55       0.2369
     20 CA          3.6540   -2.6565   -0.0707 C.3     2  VAL22       0.1017
     21 CA          1.7070    2.7240   -0.7355 C.3     5  ASP55       0.1047
     22 CB          4.6762   -3.5068   -0.8580 C.3     2  VAL22      -0.0197
     23 CA         -0.1433   -2.3501   -0.2392 C.3     3  LEU33       0.0996
     24 C           2.2565   -2.7135   -0.7137 C.2     2  VAL22       0.2342
     25 CB          1.6102    3.3241   -2.1333 C.3     5  ASP55       0.0138
     26 CA         -1.5926    1.1287    0.4438 C.3     4  TRP44       0.1034
     27 CB         -1.0523   -3.5424    0.0924 C.3     3  LEU33      -0.0236
     28 CG         -2.5314   -3.3664   -0.3092 C.3     3  LEU33      -0.0446
     29 C          -0.4142    2.1269    0.5013 C.2     4  TRP44       0.2343
     30 CB         -2.7706    1.7652   -0.3052 C.3     4  TRP44       0.0013
     31 C          -0.5636   -1.1078    0.5550 C.2     3  LEU33       0.2340
     32 CG1         4.2268   -4.9735   -0.9405 C.3     2  VAL22      -0.0605
     33 CG2         6.0623   -3.4560   -0.2055 C.3     2  VAL22      -0.0605
     34 CG         -3.9478    0.8377   -0.4525 C.ar    4  TRP44      -0.0201
     35 CG          1.1475    2.3901   -3.2552 C.2     5  ASP55       0.0440
     36 CD1        -2.7101   -3.2077   -1.8191 C.3     3  LEU33      -0.0626
     37 CD2        -3.3528   -4.5618    0.1825 C.3     3  LEU33      -0.0626
     38 CD2        -4.7540    0.2757    0.5917 C.ar    4  TRP44       0.0029
     39 CD1        -4.4309    0.3301   -1.6438 C.ar    4  TRP44       0.0060
     40 CE2        -5.6863   -0.5723   -0.0088 C.ar    4  TRP44       0.0467
     41 CE3        -4.7635    0.3896    1.9974 C.ar    4  TRP44      -0.0523
     42 CZ2        -6.6212   -1.3142    0.7243 C.ar    4  TRP44      -0.0378
     43 CZ3        -5.6889   -0.3469    2.7460 C.ar    4  TRP44      -0.0611
     44 CH2        -6.6032   -1.1867    2.1161 C.ar    4  TRP44      -0.0598
     45 H           3.8387   -0.6632   -0.8518 H       2  VAL22       0.1495
     46 H           0.3235    1.2809   -1.2237 H       5  ASP55       0.1495
     47 H           1.4513   -2.3376    1.1455 H       3  LEU33       0.1495
     48 H          -1.0795   -0.1409   -1.1967 H       4  TRP44       0.1495
     49 HE1        -5.9949   -1.0332   -2.0536 H       4  TRP44       0.1653
     50 HA          5.3952    1.0041    0.1460 H       1  PRO11       0.0597
     51 HB1         5.8898    2.3876    1.9894 H       1  PRO11       0.0288
     52 HB2         5.8537    0.8406    2.8518 H       1  PRO11       0.0288
     53 HG1         4.2466    2.8131    3.7162 H       1  PRO11       0.0281
     54 HG2         3.5371    1.2005    3.5198 H       1  PRO11       0.0281
     55 HD1         2.0620    2.4108    2.1031 H       1  PRO11       0.0465
     56 HD2         3.3325    3.5711    1.6278 H       1  PRO11       0.0465
     57 HA          3.5812   -3.0486    0.9513 H       2  VAL22       0.0597
     58 HA          1.7541    3.5533   -0.0238 H       5  ASP55       0.0598
     59 HB          4.7683   -3.1187   -1.8807 H       2  VAL22       0.0318
     60 HA         -0.1526   -2.1348   -1.3117 H       3  LEU33       0.0594
     61 HB1         2.5792    3.7670   -2.4087 H       5  ASP55       0.0348
     62 HB2         0.8829    4.1472   -2.1136 H       5  ASP55       0.0348
     63 HA         -1.8671    0.9139    1.4828 H       4  TRP44       0.0598
     64 HB1        -1.0052   -3.7377    1.1731 H       3  LEU33       0.0290
     65 HB2        -0.6496   -4.4423   -0.3916 H       3  LEU33       0.0290
     66 HG         -2.9333   -2.4731    0.1825 H       3  LEU33       0.0296
     67 HB1        -2.4415    2.0871   -1.3026 H       4  TRP44       0.0337
     68 HB2        -3.0963    2.6740    0.2159 H       4  TRP44       0.0337
     69 HG11        4.0789   -5.3986    0.0583 H       2  VAL22       0.0233
     70 HG12        4.9746   -5.5819   -1.4600 H       2  VAL22       0.0233
     71 HG13        3.2879   -5.0790   -1.4926 H       2  VAL22       0.0233
     72 HG21        6.0244   -3.8083    0.8313 H       2  VAL22       0.0233
     73 HG22        6.4672   -2.4395   -0.2061 H       2  VAL22       0.0233
     74 HG23        6.7701   -4.0907   -0.7500 H       2  VAL22       0.0233
     75 HD11       -2.2687   -4.0508   -2.3612 H       3  LEU33       0.0232
     76 HD12       -2.2448   -2.2872   -2.1828 H       3  LEU33       0.0232
     77 HD13       -3.7725   -3.1586   -2.0812 H       3  LEU33       0.0232
     78 HD21       -3.0159   -5.4951   -0.2814 H       3  LEU33       0.0232
     79 HD22       -4.4137   -4.4284   -0.0559 H       3  LEU33       0.0232
     80 HD23       -3.2691   -4.6723    1.2688 H       3  LEU33       0.0232
     81 HD1        -4.1015    0.4846   -2.6638 H       4  TRP44       0.0810
     82 HE3        -4.0508    1.0344    2.5030 H       4  TRP44       0.0624
     83 HZ2        -7.3313   -1.9721    0.2352 H       4  TRP44       0.0638
     84 HZ3        -5.6844   -0.2641    3.8297 H       4  TRP44       0.0618
     85 HH2        -7.3108   -1.7544    2.7151 H       4  TRP44       0.0618
@<TRIPOS>BOND
     1     1    18    2
     2     2    19    2
     3     3    24    2
     4     4    29    2
     5     5    31    2
     6     6    35   ar
     7     7    35   ar
     8     8    14    1
     9     8    17    1
    10     8    19   am
    11     9    18   am
    12     9    20    1
    13    10    21    1
    14    10    29   am
    15    11    23    1
    16    11    24   am
    17    12    26    1
    18    12    31   am
    19    13    39   ar
    20    13    40   ar
    21    14    15    1
    22    14    18    1
    23    15    16    1
    24    16    17    1
    25    19    21    1
    26    20    22    1
    27    20    24    1
    28    21    25    1
    29    22    32    1
    30    22    33    1
    31    23    27    1
    32    23    31    1
    33    25    35    1
    34    26    29    1
    35    26    30    1
    36    27    28    1
    37    28    36    1
    38    28    37    1
    39    30    34    1
    40    34    38   ar
    41    34    39   ar
    42    38    40   ar
    43    38    41   ar
    44    40    42   ar
    45    41    43   ar
    46    42    44   ar
    47    43    44   ar
    48     9    45    1
    49    10    46    1
    50    11    47    1
    51    12    48    1
    52    13    49    1
    53    14    50    1
    54    15    51    1
    55    15    52    1
    56    16    53    1
    57    16    54    1
    58    17    55    1
    59    17    56    1
    60    20    57    1
    61    21    58    1
    62    22    59    1
    63    23    60    1
    64    25    61    1
    65    25    62    1
    66    26    63    1
    67    27    64    1
    68    27    65    1
    69    28    66    1
    70    30    67    1
    71    30    68    1
    72    32    69    1
    73    32    70    1
    74    32    71    1
    75    33    72    1
    76    33    73    1
    77    33    74    1
    78    36    75    1
    79    36    76    1
    80    36    77    1
    81    37    78    1
    82    37    79    1
    83    37    80    1
    84    39    81    1
    85    41    82    1
    86    42    83    1
    87    43    84    1
    88    44    85    1
