@<TRIPOS>MOLECULE
9957262
 56 59 0 0 0
SMALL
GASTEIGER

@<TRIPOS>ATOM
      1 S           2.9561    2.9083   -1.4442 S.O2    1  LIG11       0.0668
      2 O           0.0250    1.2629   -0.4374 O.3     1  LIG11      -0.4435
      3 O          -0.5249   -1.5417   -0.5068 O.3     1  LIG11      -0.4771
      4 O           3.9190    3.9251   -1.0646 O.2     1  LIG11      -0.1505
      5 O           3.2398    2.0221   -2.5553 O.2     1  LIG11      -0.1505
      6 O          -2.6110    2.1110    0.5132 O.3     1  LIG11      -0.4914
      7 N           2.7694    1.9622   -0.0503 N.pl3   1  LIG11      -0.1968
      8 N           3.3341   -0.2272   -0.2345 N.ar    1  LIG11      -0.2044
      9 N           1.7681   -1.9846   -0.5522 N.ar    1  LIG11      -0.1867
     10 N           3.9239   -3.6487   -1.2375 N.ar    1  LIG11      -0.2331
     11 N           5.3394   -2.1836    0.0129 N.ar    1  LIG11      -0.2331
     12 C           2.3081    0.6335   -0.2704 C.ar    1  LIG11       0.1883
     13 C           0.9848    0.2892   -0.4641 C.ar    1  LIG11       0.2307
     14 C           0.7748   -1.0758   -0.5299 C.ar    1  LIG11       0.2639
     15 C          -1.1055    1.1354   -1.2181 C.ar    1  LIG11       0.1702
     16 C           1.4365    3.7059   -1.6838 C.2     1  LIG11       0.0729
     17 C           3.0313   -1.5251   -0.4354 C.ar    1  LIG11       0.2027
     18 C          -2.3414    1.5723   -0.7173 C.ar    1  LIG11       0.1621
     19 C           0.8395    3.6511   -2.8844 C.2     1  LIG11      -0.0353
     20 C          -0.4735    4.2260   -3.2239 C.ar    1  LIG11      -0.0237
     21 C          -1.0193    0.6821   -2.5472 C.ar    1  LIG11      -0.0157
     22 C           4.1493   -2.5022   -0.5500 C.ar    1  LIG11       0.1978
     23 C          -3.4706    1.5165   -1.5466 C.ar    1  LIG11      -0.0163
     24 C          -2.1575    0.6123   -3.3518 C.ar    1  LIG11      -0.0581
     25 C          -3.3852    1.0279   -2.8501 C.ar    1  LIG11      -0.0581
     26 C          -1.3090    4.8564   -2.2924 C.ar    1  LIG11      -0.0546
     27 C          -0.9333    4.0888   -4.5428 C.ar    1  LIG11      -0.0546
     28 C          -2.5667    5.3365   -2.6699 C.ar    1  LIG11      -0.0612
     29 C          -2.1908    4.5665   -4.9198 C.ar    1  LIG11      -0.0612
     30 C          -3.0075    5.1910   -3.9822 C.ar    1  LIG11      -0.0617
     31 C          -0.6409   -2.9539   -0.6438 C.3     1  LIG11       0.0805
     32 C          -1.7297    1.7978    1.5813 C.3     1  LIG11       0.0790
     33 C           4.9641   -4.4913   -1.3677 C.ar    1  LIG11       0.0315
     34 C           6.3384   -3.0714   -0.1423 C.ar    1  LIG11       0.0315
     35 C           6.2066   -4.2511   -0.8341 C.ar    1  LIG11      -0.0254
     36 H           3.6956    1.9006    0.3774 H       1  LIG11       0.1753
     37 H           1.0353    4.2216   -0.8268 H       1  LIG11       0.0838
     38 H           1.3256    3.1097   -3.6958 H       1  LIG11       0.0637
     39 H          -0.0651    0.3909   -2.9780 H       1  LIG11       0.0655
     40 H          -4.4303    1.8613   -1.1683 H       1  LIG11       0.0655
     41 H          -2.0808    0.2515   -4.3740 H       1  LIG11       0.0619
     42 H          -4.2734    0.9899   -3.4751 H       1  LIG11       0.0619
     43 H          -1.0158    4.9699   -1.2533 H       1  LIG11       0.0623
     44 H          -0.3209    3.5934   -5.2935 H       1  LIG11       0.0623
     45 H          -3.2057    5.8134   -1.9312 H       1  LIG11       0.0618
     46 H          -2.5328    4.4428   -5.9436 H       1  LIG11       0.0618
     47 H          -3.9884    5.5578   -4.2709 H       1  LIG11       0.0618
     48 H          -1.7071   -3.1996   -0.6586 H       1  LIG11       0.0660
     49 H          -0.2062   -3.3001   -1.5878 H       1  LIG11       0.0660
     50 H          -0.1921   -3.4709    0.2113 H       1  LIG11       0.0660
     51 H          -2.2430    2.0451    2.5158 H       1  LIG11       0.0660
     52 H          -1.4871    0.7308    1.6140 H       1  LIG11       0.0660
     53 H          -0.8298    2.4184    1.5340 H       1  LIG11       0.0660
     54 H           4.7608   -5.3938   -1.9372 H       1  LIG11       0.0831
     55 H           7.2812   -2.7929    0.3197 H       1  LIG11       0.0831
     56 H           7.0275   -4.9442   -0.9522 H       1  LIG11       0.0648
@<TRIPOS>BOND
     1     1     4    2
     2     1     5    2
     3     1     7    1
     4     1    16    1
     5     2    13    1
     6     2    15    1
     7     3    14    1
     8     3    31    1
     9     6    18    1
    10     6    32    1
    11     7    12    1
    12     8    12   ar
    13     8    17   ar
    14     9    14   ar
    15     9    17   ar
    16    10    22   ar
    17    10    33   ar
    18    11    22   ar
    19    11    34   ar
    20    12    13   ar
    21    13    14   ar
    22    15    18   ar
    23    15    21   ar
    24    16    19    2
    25    17    22    1
    26    18    23   ar
    27    19    20    1
    28    20    26   ar
    29    20    27   ar
    30    21    24   ar
    31    23    25   ar
    32    24    25   ar
    33    26    28   ar
    34    27    29   ar
    35    28    30   ar
    36    29    30   ar
    37    33    35   ar
    38    34    35   ar
    39     7    36    1
    40    16    37    1
    41    19    38    1
    42    21    39    1
    43    23    40    1
    44    24    41    1
    45    25    42    1
    46    26    43    1
    47    27    44    1
    48    28    45    1
    49    29    46    1
    50    30    47    1
    51    31    48    1
    52    31    49    1
    53    31    50    1
    54    32    51    1
    55    32    52    1
    56    32    53    1
    57    33    54    1
    58    34    55    1
    59    35    56    1
@<TRIPOS>MOLECULE
16219006
 85 88 0 0 0
SMALL
GASTEIGER

@<TRIPOS>ATOM
      1 O           4.1297   -1.0309    2.2839 O.2     1  PRO11      -0.2738
      2 O           3.1280    0.9893   -1.3325 O.2     5  ASP55      -0.2735
      3 O           2.0597   -2.2796   -1.8408 O.2     2  VAL22      -0.2738
      4 O          -0.5938    3.0218    1.1224 O.2     4  TRP44      -0.2738
      5 O          -0.5720   -1.1304    1.8096 O.2     3  LEU33      -0.2738
      6 OD1         3.1126    4.8746   -3.3224 O.co2   5  ASP55      -0.5497
      7 OD2         3.6080    4.5596   -1.1198 O.co2   5  ASP55      -0.5497
      8 N           3.4199    1.7787    0.7719 N.am    1  PRO11      -0.2884
      9 N           4.1463   -1.1917    0.0007 N.am    2  VAL22      -0.3022
     10 N           0.4613    1.9513   -0.6132 N.am    5  ASP55      -0.3021
     11 N           1.2415   -2.7057    0.2527 N.am    3  LEU33      -0.3025
     12 N          -1.1708   -0.2817   -0.2398 N.am    4  TRP44      -0.3022
     13 NE1        -2.0277    1.6862   -4.1394 N.ar    4  TRP44      -0.3604
     14 CA          4.6329    0.9951    0.9917 C.3     1  PRO11       0.1023
     15 CB          5.2678    1.6168    2.2386 C.3     1  PRO11      -0.0243
     16 CG          4.0842    2.2303    2.9774 C.3     1  PRO11      -0.0350
     17 CD          3.2040    2.7330    1.8451 C.3     1  PRO11       0.0156
     18 C           4.2887   -0.4988    1.1865 C.2     1  PRO11       0.2342
     19 C           2.8357    1.8394   -0.4776 C.2     5  ASP55       0.2369
     20 CA          3.6764   -2.5708   -0.0416 C.3     2  VAL22       0.1017
     21 CA          1.6503    2.8145   -0.6902 C.3     5  ASP55       0.1047
     22 CB          4.6052   -3.4637   -0.8932 C.3     2  VAL22      -0.0197
     23 CA         -0.1394   -2.4940   -0.1511 C.3     3  LEU33       0.0996
     24 C           2.2645   -2.5136   -0.6508 C.2     2  VAL22       0.2342
     25 CB          1.7186    3.4698   -2.0596 C.3     5  ASP55       0.0138
     26 CA         -1.6401    1.0116    0.2713 C.3     4  TRP44       0.1034
     27 CB         -1.0293   -3.6929    0.1977 C.3     3  LEU33      -0.0236
     28 CG         -0.6846   -4.9894   -0.5662 C.3     3  LEU33      -0.0446
     29 C          -0.5192    2.0732    0.3425 C.2     4  TRP44       0.2343
     30 CB         -2.8427    1.5253   -0.5390 C.3     4  TRP44       0.0013
     31 C          -0.6387   -1.2422    0.5873 C.2     3  LEU33       0.2340
     32 CG1         4.0608   -4.8956   -0.9887 C.3     2  VAL22      -0.0605
     33 CG2         6.0199   -3.5085   -0.3041 C.3     2  VAL22      -0.0605
     34 CG         -2.5505    1.8551   -1.9768 C.ar    4  TRP44      -0.0201
     35 CG          2.9313    4.3856   -2.1710 C.2     5  ASP55       0.0440
     36 CD1        -1.6237   -6.1142   -0.1213 C.3     3  LEU33      -0.0626
     37 CD2        -0.7720   -4.8245   -2.0849 C.3     3  LEU33      -0.0626
     38 CD2        -2.4502    3.1719   -2.5360 C.ar    4  TRP44       0.0029
     39 CD1        -2.3362    0.9665   -3.0154 C.ar    4  TRP44       0.0060
     40 CE2        -2.1249    3.0320   -3.8845 C.ar    4  TRP44       0.0467
     41 CE3        -2.5896    4.4742   -2.0130 C.ar    4  TRP44      -0.0523
     42 CZ2        -1.9274    4.1252   -4.7357 C.ar    4  TRP44      -0.0378
     43 CZ3        -2.4086    5.5790   -2.8526 C.ar    4  TRP44      -0.0611
     44 CH2        -2.0798    5.4040   -4.1941 C.ar    4  TRP44      -0.0598
     45 H           3.9555   -0.6058   -0.8217 H       2  VAL22       0.1495
     46 H           0.4890    1.1350   -1.2055 H       5  ASP55       0.1495
     47 H           1.4538   -2.5575    1.2374 H       3  LEU33       0.1495
     48 H          -0.9614   -0.3330   -1.2285 H       4  TRP44       0.1495
     49 HE1        -1.7677    1.2962   -5.0346 H       4  TRP44       0.1653
     50 HA          5.3093    1.0894    0.1332 H       1  PRO11       0.0597
     51 HB1         5.9572    2.4158    1.9382 H       1  PRO11       0.0288
     52 HB2         5.8253    0.9068    2.8562 H       1  PRO11       0.0288
     53 HG1         4.3788    3.0265    3.6664 H       1  PRO11       0.0281
     54 HG2         3.5590    1.4572    3.5503 H       1  PRO11       0.0281
     55 HD1         2.1488    2.7715    2.1267 H       1  PRO11       0.0465
     56 HD2         3.5277    3.7219    1.5042 H       1  PRO11       0.0465
     57 HA          3.6168   -2.9776    0.9748 H       2  VAL22       0.0597
     58 HA          1.5946    3.5734    0.0926 H       5  ASP55       0.0598
     59 HB          4.6757   -3.0580   -1.9109 H       2  VAL22       0.0318
     60 HA         -0.1942   -2.3018   -1.2262 H       3  LEU33       0.0594
     61 HB1         0.8173    4.0697   -2.2342 H       5  ASP55       0.0348
     62 HB2         1.7681    2.7191   -2.8581 H       5  ASP55       0.0348
     63 HA         -1.9683    0.8489    1.3057 H       4  TRP44       0.0598
     64 HB1        -2.0766   -3.4263    0.0007 H       3  LEU33       0.0290
     65 HB2        -0.9656   -3.8917    1.2765 H       3  LEU33       0.0290
     66 HG          0.3395   -5.2906   -0.3132 H       3  LEU33       0.0296
     67 HB1        -3.2534    2.4119   -0.0407 H       4  TRP44       0.0337
     68 HB2        -3.6386    0.7687   -0.5182 H       4  TRP44       0.0337
     69 HG11        3.9329   -5.3380    0.0055 H       2  VAL22       0.0233
     70 HG12        4.7444   -5.5350   -1.5574 H       2  VAL22       0.0233
     71 HG13        3.0923   -4.9240   -1.4983 H       2  VAL22       0.0233
     72 HG21        6.0084   -3.8855    0.7245 H       2  VAL22       0.0233
     73 HG22        6.4806   -2.5160   -0.2981 H       2  VAL22       0.0233
     74 HG23        6.6659   -4.1659   -0.8964 H       2  VAL22       0.0233
     75 HD11       -2.6661   -5.8795   -0.3632 H       3  LEU33       0.0232
     76 HD12       -1.5533   -6.2774    0.9588 H       3  LEU33       0.0232
     77 HD13       -1.3658   -7.0557   -0.6183 H       3  LEU33       0.0232
     78 HD21       -1.7462   -4.4248   -2.3862 H       3  LEU33       0.0232
     79 HD22       -0.6299   -5.7859   -2.5904 H       3  LEU33       0.0232
     80 HD23        0.0041   -4.1511   -2.4599 H       3  LEU33       0.0232
     81 HD1        -2.3460   -0.1139   -3.0517 H       4  TRP44       0.0810
     82 HE3        -2.8154    4.6281   -0.9620 H       4  TRP44       0.0624
     83 HZ2        -1.6422    3.9939   -5.7740 H       4  TRP44       0.0638
     84 HZ3        -2.4997    6.5822   -2.4450 H       4  TRP44       0.0618
     85 HH2        -1.9126    6.2744   -4.8236 H       4  TRP44       0.0618
@<TRIPOS>BOND
     1     1    18    2
     2     2    19    2
     3     3    24    2
     4     4    29    2
     5     5    31    2
     6     6    35   ar
     7     7    35   ar
     8     8    14    1
     9     8    17    1
    10     8    19   am
    11     9    18   am
    12     9    20    1
    13    10    21    1
    14    10    29   am
    15    11    23    1
    16    11    24   am
    17    12    26    1
    18    12    31   am
    19    13    39   ar
    20    13    40   ar
    21    14    15    1
    22    14    18    1
    23    15    16    1
    24    16    17    1
    25    19    21    1
    26    20    22    1
    27    20    24    1
    28    21    25    1
    29    22    32    1
    30    22    33    1
    31    23    27    1
    32    23    31    1
    33    25    35    1
    34    26    29    1
    35    26    30    1
    36    27    28    1
    37    28    36    1
    38    28    37    1
    39    30    34    1
    40    34    38   ar
    41    34    39   ar
    42    38    40   ar
    43    38    41   ar
    44    40    42   ar
    45    41    43   ar
    46    42    44   ar
    47    43    44   ar
    48     9    45    1
    49    10    46    1
    50    11    47    1
    51    12    48    1
    52    13    49    1
    53    14    50    1
    54    15    51    1
    55    15    52    1
    56    16    53    1
    57    16    54    1
    58    17    55    1
    59    17    56    1
    60    20    57    1
    61    21    58    1
    62    22    59    1
    63    23    60    1
    64    25    61    1
    65    25    62    1
    66    26    63    1
    67    27    64    1
    68    27    65    1
    69    28    66    1
    70    30    67    1
    71    30    68    1
    72    32    69    1
    73    32    70    1
    74    32    71    1
    75    33    72    1
    76    33    73    1
    77    33    74    1
    78    36    75    1
    79    36    76    1
    80    36    77    1
    81    37    78    1
    82    37    79    1
    83    37    80    1
    84    39    81    1
    85    41    82    1
    86    42    83    1
    87    43    84    1
    88    44    85    1
