@<TRIPOS>MOLECULE
01012527H
 86 88 0 0 0
SMALL
GASTEIGER

@<TRIPOS>ATOM
      1 C          -0.8572    2.5310    0.1488 C.3     1  LIG11       0.0531
      2 C           0.2448    1.5095   -0.0877 C.3     1  LIG11      -0.0111
      3 C          -2.0984    2.0975   -0.6197 C.3     1  LIG11       0.0375
      4 C          -0.9830    2.3926    1.6634 C.2     1  LIG11       0.0509
      5 N          -0.5092    0.2472   -0.6093 N.4     1  LIG11       0.2448
      6 C           1.3161    1.8442   -1.1511 C.3     1  LIG11      -0.0039
      7 C          -2.2140    2.8595   -1.9393 C.ar    1  LIG11      -0.0313
      8 C          -1.9981    0.5820   -0.6887 C.3     1  LIG11      -0.0234
      9 O          -0.1665    3.0859    2.3152 O.co2   1  LIG11      -0.5493
     10 O          -1.7929    1.5064    2.0482 O.co2   1  LIG11      -0.5493
     11 C          -0.2714   -0.9652    0.2903 C.3     1  LIG11       0.0465
     12 C           2.4071    2.9257   -0.8421 C.3     1  LIG11      -0.0298
     13 C          -1.6305    2.4472   -3.1408 C.ar    1  LIG11      -0.0122
     14 C          -2.9001    4.0999   -1.9143 C.ar    1  LIG11      -0.0124
     15 C          -0.9038   -2.2536   -0.2695 C.2     1  LIG11       0.2608
     16 C           1.7999    4.3533   -0.8916 C.3     1  LIG11      -0.0479
     17 C           3.0646    2.6677    0.5229 C.3     1  LIG11      -0.0596
     18 C           3.4980    2.7761   -1.9311 C.3     1  LIG11      -0.0596
     19 C          -1.7031    3.2997   -4.2275 C.ar    1  LIG11       0.1702
     20 C          -2.9977    4.9312   -3.0372 C.ar    1  LIG11       0.1656
     21 N          -0.0771   -3.2496   -0.7989 N.am    1  LIG11      -0.2971
     22 O          -2.1328   -2.3551   -0.3187 O.2     1  LIG11      -0.2697
     23 C           2.7870    5.5284   -0.9219 C.3     1  LIG11      -0.0554
     24 C          -2.3629    4.5102   -4.1889 C.ar    1  LIG11       0.2075
     25 O          -1.1175    3.0540   -5.4341 O.3     1  LIG11      -0.4525
     26 O          -3.7057    6.0802   -2.8283 O.3     1  LIG11      -0.4913
     27 C           1.3417   -3.0625   -1.1271 C.3     1  LIG11       0.0148
     28 C          -0.7189   -4.4970   -1.2441 C.3     1  LIG11       0.0148
     29 C           2.0453    6.8571   -0.9759 C.3     1  LIG11      -0.0653
     30 O          -2.2704    5.1625   -5.3833 O.3     1  LIG11      -0.4489
     31 C          -1.4249    4.2758   -6.1340 C.3     1  LIG11       0.2334
     32 C          -3.8754    6.9537   -3.9353 C.3     1  LIG11       0.0790
     33 C           2.2721   -3.4634    0.0137 C.3     1  LIG11      -0.0374
     34 C          -1.2896   -5.3636   -0.1148 C.3     1  LIG11      -0.0374
     35 C           3.7439   -3.1892   -0.3024 C.3     1  LIG11      -0.0545
     36 C          -0.2118   -5.9364    0.8049 C.3     1  LIG11      -0.0545
     37 C           4.3213   -4.1676   -1.3149 C.3     1  LIG11      -0.0652
     38 C          -0.7825   -6.9447    1.7897 C.3     1  LIG11      -0.0652
     39 H          -0.5916    3.5641   -0.0708 H       1  LIG11       0.0424
     40 H           0.7707    1.1868    0.8176 H       1  LIG11       0.0858
     41 H          -3.0167    2.3296   -0.0623 H       1  LIG11       0.0409
     42 H          -0.1967    0.0163   -1.5528 H       1  LIG11       0.2042
     43 H           0.8371    2.1038   -2.0990 H       1  LIG11       0.0325
     44 H           1.8516    0.9037   -1.3504 H       1  LIG11       0.0325
     45 H          -2.3874    0.1429   -1.6131 H       1  LIG11       0.0821
     46 H          -2.5042    0.1188    0.1624 H       1  LIG11       0.0821
     47 H          -0.7054   -0.7611    1.2766 H       1  LIG11       0.0913
     48 H           0.8082   -1.0554    0.4133 H       1  LIG11       0.0913
     49 H          -1.0932    1.5117   -3.2463 H       1  LIG11       0.0658
     50 H          -3.3627    4.4374   -0.9867 H       1  LIG11       0.0658
     51 H           1.1695    4.5027   -0.0090 H       1  LIG11       0.0270
     52 H           1.1437    4.4344   -1.7711 H       1  LIG11       0.0270
     53 H           3.4141    1.6320    0.6035 H       1  LIG11       0.0235
     54 H           2.3707    2.8531    1.3475 H       1  LIG11       0.0235
     55 H           3.9334    3.3174    0.6796 H       1  LIG11       0.0235
     56 H           3.8855    1.7515   -1.9651 H       1  LIG11       0.0235
     57 H           4.3578    3.4271   -1.7414 H       1  LIG11       0.0235
     58 H           3.1011    3.0156   -2.9231 H       1  LIG11       0.0235
     59 H           3.4380    5.4656   -1.7993 H       1  LIG11       0.0263
     60 H           3.4223    5.5097   -0.0324 H       1  LIG11       0.0263
     61 H           1.5010   -2.0159   -1.3896 H       1  LIG11       0.0464
     62 H           1.5601   -3.6344   -2.0287 H       1  LIG11       0.0464
     63 H          -0.0097   -5.0818   -1.8313 H       1  LIG11       0.0464
     64 H          -1.5354   -4.2181   -1.9177 H       1  LIG11       0.0464
     65 H           1.4502    6.9329   -1.8901 H       1  LIG11       0.0230
     66 H           2.7533    7.6872   -0.9650 H       1  LIG11       0.0230
     67 H           1.3768    6.9704   -0.1211 H       1  LIG11       0.0230
     68 H          -1.9219    4.0261   -7.0752 H       1  LIG11       0.1166
     69 H          -0.4870    4.7976   -6.3562 H       1  LIG11       0.1166
     70 H          -4.5021    7.7869   -3.6020 H       1  LIG11       0.0660
     71 H          -4.4023    6.4597   -4.7584 H       1  LIG11       0.0660
     72 H          -2.9166    7.3719   -4.2559 H       1  LIG11       0.0660
     73 H           2.1518   -4.5267    0.2497 H       1  LIG11       0.0280
     74 H           2.0041   -2.9125    0.9264 H       1  LIG11       0.0280
     75 H          -1.8415   -6.1914   -0.5739 H       1  LIG11       0.0280
     76 H          -2.0124   -4.8011    0.4858 H       1  LIG11       0.0280
     77 H           4.3252   -3.2700    0.6236 H       1  LIG11       0.0263
     78 H           3.8700   -2.1617   -0.6681 H       1  LIG11       0.0263
     79 H           0.2591   -5.1279    1.3735 H       1  LIG11       0.0263
     80 H           0.5688   -6.4257    0.2093 H       1  LIG11       0.0263
     81 H           4.2148   -5.2011   -0.9621 H       1  LIG11       0.0230
     82 H           5.3865   -3.9708   -1.4689 H       1  LIG11       0.0230
     83 H           3.8200   -4.0853   -2.2872 H       1  LIG11       0.0230
     84 H          -1.5370   -6.4823    2.4316 H       1  LIG11       0.0230
     85 H           0.0137   -7.3421    2.4285 H       1  LIG11       0.0230
     86 H          -1.2457   -7.7875    1.2642 H       1  LIG11       0.0230
@<TRIPOS>BOND
     1     1     2    1
     2     1     3    1
     3     1     4    1
     4     2     5    1
     5     2     6    1
     6     3     8    1
     7     3     7    1
     8     4    10   ar
     9     4     9   ar
    10     5     8    1
    11     5    11    1
    12     6    12    1
    13     7    14   ar
    14     7    13   ar
    15    11    15    1
    16    12    18    1
    17    12    17    1
    18    12    16    1
    19    13    19   ar
    20    14    20   ar
    21    15    22    2
    22    15    21   am
    23    16    23    1
    24    19    25    1
    25    19    24   ar
    26    20    24   ar
    27    20    26    1
    28    21    28    1
    29    21    27    1
    30    23    29    1
    31    24    30    1
    32    25    31    1
    33    26    32    1
    34    27    33    1
    35    28    34    1
    36    30    31    1
    37    33    35    1
    38    34    36    1
    39    35    37    1
    40    36    38    1
    41     1    39    1
    42     2    40    1
    43     3    41    1
    44     5    42    1
    45     6    43    1
    46     6    44    1
    47     8    45    1
    48     8    46    1
    49    11    47    1
    50    11    48    1
    51    13    49    1
    52    14    50    1
    53    16    51    1
    54    16    52    1
    55    17    53    1
    56    17    54    1
    57    17    55    1
    58    18    56    1
    59    18    57    1
    60    18    58    1
    61    23    59    1
    62    23    60    1
    63    27    61    1
    64    27    62    1
    65    28    63    1
    66    28    64    1
    67    29    65    1
    68    29    66    1
    69    29    67    1
    70    31    68    1
    71    31    69    1
    72    32    70    1
    73    32    71    1
    74    32    72    1
    75    33    73    1
    76    33    74    1
    77    34    75    1
    78    34    76    1
    79    35    77    1
    80    35    78    1
    81    36    79    1
    82    36    80    1
    83    37    81    1
    84    37    82    1
    85    37    83    1
    86    38    84    1
    87    38    85    1
    88    38    86    1
@<TRIPOS>MOLECULE
16219006
 85 88 0 0 0
SMALL
GASTEIGER

@<TRIPOS>ATOM
      1 O           4.1557   -1.0452    2.2986 O.2     1  PRO11      -0.2738
      2 O           3.0944    0.9877   -1.2973 O.2     5  ASP55      -0.2735
      3 O           2.0610   -2.3097   -1.8452 O.2     2  VAL22      -0.2738
      4 O          -0.6167    3.0015    1.1537 O.2     4  TRP44      -0.2738
      5 O          -0.5987   -1.1388    1.7964 O.2     3  LEU33      -0.2738
      6 OD1         3.6031    4.5831   -1.0198 O.co2   5  ASP55      -0.5497
      7 OD2         3.2314    4.8087   -3.2572 O.co2   5  ASP55      -0.5497
      8 N           3.4064    1.7737    0.8056 N.am    1  PRO11      -0.2884
      9 N           4.1265   -1.1882    0.0147 N.am    2  VAL22      -0.3022
     10 N           0.4416    1.9713   -0.6038 N.am    5  ASP55      -0.3021
     11 N           1.2327   -2.7028    0.2505 N.am    3  LEU33      -0.3025
     12 N          -1.1773   -0.2823   -0.2551 N.am    4  TRP44      -0.3022
     13 NE1        -2.0377    1.6870   -4.1549 N.ar    4  TRP44      -0.3604
     14 CA          4.6238    0.9928    1.0120 C.3     1  PRO11       0.1023
     15 CB          5.2683    1.6123    2.2549 C.3     1  PRO11      -0.0243
     16 CG          4.0897    2.2193    3.0066 C.3     1  PRO11      -0.0350
     17 CD          3.1988    2.7244    1.8839 C.3     1  PRO11       0.0156
     18 C           4.2888   -0.5039    1.2026 C.2     1  PRO11       0.2342
     19 C           2.8134    1.8381   -0.4391 C.2     5  ASP55       0.2369
     20 CA          3.6690   -2.5713   -0.0330 C.3     2  VAL22       0.1017
     21 CA          1.6383    2.8258   -0.6493 C.3     5  ASP55       0.1047
     22 CB          4.6106   -3.4536   -0.8819 C.3     2  VAL22      -0.0197
     23 CA         -0.1468   -2.4979   -0.1616 C.3     3  LEU33       0.0996
     24 C           2.2601   -2.5255   -0.6503 C.2     2  VAL22       0.2342
     25 CB          1.7342    3.5013   -2.0073 C.3     5  ASP55       0.0138
     26 CA         -1.6560    1.0054    0.2610 C.3     4  TRP44       0.1034
     27 CB         -1.0334   -3.6992    0.1881 C.3     3  LEU33      -0.0236
     28 CG         -0.6817   -4.9973   -0.5698 C.3     3  LEU33      -0.0446
     29 C          -0.5390    2.0694    0.3543 C.2     4  TRP44       0.2343
     30 CB         -2.8530    1.5217   -0.5550 C.3     4  TRP44       0.0013
     31 C          -0.6536   -1.2470    0.5739 C.2     3  LEU33       0.2340
     32 CG1         4.0811   -4.8908   -0.9811 C.3     2  VAL22      -0.0605
     33 CG2         6.0234   -3.4844   -0.2881 C.3     2  VAL22      -0.0605
     34 CG         -2.5538    1.8540   -1.9905 C.ar    4  TRP44      -0.0201
     35 CG          2.9770    4.3785   -2.0965 C.2     5  ASP55       0.0440
     36 CD1        -1.6136   -6.1254   -0.1186 C.3     3  LEU33      -0.0626
     37 CD2        -0.7721   -4.8396   -2.0892 C.3     3  LEU33      -0.0626
     38 CD2        -2.4402    3.1715   -2.5451 C.ar    4  TRP44       0.0029
     39 CD1        -2.3475    0.9667   -3.0316 C.ar    4  TRP44       0.0060
     40 CE2        -2.1213    3.0329   -3.8952 C.ar    4  TRP44       0.0467
     41 CE3        -2.5655    4.4731   -2.0170 C.ar    4  TRP44      -0.0523
     42 CZ2        -1.9184    4.1272   -4.7439 C.ar    4  TRP44      -0.0378
     43 CZ3        -2.3782    5.5789   -2.8539 C.ar    4  TRP44      -0.0611
     44 CH2        -2.0575    5.4055   -4.1973 C.ar    4  TRP44      -0.0598
     45 H           3.9263   -0.5980   -0.8023 H       2  VAL22       0.1495
     46 H           0.4695    1.1687   -1.2147 H       5  ASP55       0.1495
     47 H           1.4404   -2.5469    1.2349 H       3  LEU33       0.1495
     48 H          -0.9555   -0.3278   -1.2413 H       4  TRP44       0.1495
     49 HE1        -1.7864    1.2973   -5.0527 H       4  TRP44       0.1653
     50 HA          5.2922    1.0934    0.1479 H       1  PRO11       0.0597
     51 HB1         5.9521    2.4150    1.9508 H       1  PRO11       0.0288
     52 HB2         5.8344    0.9024    2.8648 H       1  PRO11       0.0288
     53 HG1         4.3882    3.0135    3.6964 H       1  PRO11       0.0281
     54 HG2         3.5716    1.4423    3.5807 H       1  PRO11       0.0281
     55 HD1         2.1457    2.7604    2.1742 H       1  PRO11       0.0465
     56 HD2         3.5182    3.7151    1.5450 H       1  PRO11       0.0465
     57 HA          3.6070   -2.9807    0.9821 H       2  VAL22       0.0597
     58 HA          1.5774    3.5718    0.1455 H       5  ASP55       0.0598
     59 HB          4.6807   -3.0462   -1.8990 H       2  VAL22       0.0318
     60 HA         -0.1979   -2.3076   -1.2376 H       3  LEU33       0.0594
     61 HB1         0.8538    4.1327   -2.1772 H       5  ASP55       0.0348
     62 HB2         1.7634    2.7614   -2.8171 H       5  ASP55       0.0348
     63 HA         -1.9944    0.8335    1.2910 H       4  TRP44       0.0598
     64 HB1        -2.0811   -3.4374   -0.0126 H       3  LEU33       0.0290
     65 HB2        -0.9717   -3.8940    1.2676 H       3  LEU33       0.0290
     66 HG          0.3444   -5.2914   -0.3167 H       3  LEU33       0.0296
     67 HB1        -3.2665    2.4075   -0.0573 H       4  TRP44       0.0337
     68 HB2        -3.6492    0.7653   -0.5400 H       4  TRP44       0.0337
     69 HG11        3.9550   -5.3358    0.0119 H       2  VAL22       0.0233
     70 HG12        4.7729   -5.5221   -1.5489 H       2  VAL22       0.0233
     71 HG13        3.1145   -4.9283   -1.4935 H       2  VAL22       0.0233
     72 HG21        6.0123   -3.8611    0.7406 H       2  VAL22       0.0233
     73 HG22        6.4743   -2.4872   -0.2810 H       2  VAL22       0.0233
     74 HG23        6.6778   -4.1354   -0.8780 H       2  VAL22       0.0233
     75 HD11       -2.6579   -5.8977   -0.3594 H       3  LEU33       0.0232
     76 HD12       -1.5403   -6.2835    0.9623 H       3  LEU33       0.0232
     77 HD13       -1.3514   -7.0676   -0.6118 H       3  LEU33       0.0232
     78 HD21       -1.7496   -4.4485   -2.3908 H       3  LEU33       0.0232
     79 HD22       -0.6237   -5.8023   -2.5904 H       3  LEU33       0.0232
     80 HD23       -0.0016   -4.1622   -2.4679 H       3  LEU33       0.0232
     81 HD1        -2.3666   -0.1137   -3.0704 H       4  TRP44       0.0810
     82 HE3        -2.7860    4.6254   -0.9646 H       4  TRP44       0.0624
     83 HZ2        -1.6408    3.9968   -5.7843 H       4  TRP44       0.0638
     84 HZ3        -2.4592    6.5815   -2.4424 H       4  TRP44       0.0618
     85 HH2        -1.8871    6.2766   -4.8250 H       4  TRP44       0.0618
@<TRIPOS>BOND
     1     1    18    2
     2     2    19    2
     3     3    24    2
     4     4    29    2
     5     5    31    2
     6     6    35   ar
     7     7    35   ar
     8     8    14    1
     9     8    17    1
    10     8    19   am
    11     9    18   am
    12     9    20    1
    13    10    21    1
    14    10    29   am
    15    11    23    1
    16    11    24   am
    17    12    26    1
    18    12    31   am
    19    13    39   ar
    20    13    40   ar
    21    14    15    1
    22    14    18    1
    23    15    16    1
    24    16    17    1
    25    19    21    1
    26    20    22    1
    27    20    24    1
    28    21    25    1
    29    22    32    1
    30    22    33    1
    31    23    27    1
    32    23    31    1
    33    25    35    1
    34    26    29    1
    35    26    30    1
    36    27    28    1
    37    28    36    1
    38    28    37    1
    39    30    34    1
    40    34    38   ar
    41    34    39   ar
    42    38    40   ar
    43    38    41   ar
    44    40    42   ar
    45    41    43   ar
    46    42    44   ar
    47    43    44   ar
    48     9    45    1
    49    10    46    1
    50    11    47    1
    51    12    48    1
    52    13    49    1
    53    14    50    1
    54    15    51    1
    55    15    52    1
    56    16    53    1
    57    16    54    1
    58    17    55    1
    59    17    56    1
    60    20    57    1
    61    21    58    1
    62    22    59    1
    63    23    60    1
    64    25    61    1
    65    25    62    1
    66    26    63    1
    67    27    64    1
    68    27    65    1
    69    28    66    1
    70    30    67    1
    71    30    68    1
    72    32    69    1
    73    32    70    1
    74    32    71    1
    75    33    72    1
    76    33    73    1
    77    33    74    1
    78    36    75    1
    79    36    76    1
    80    36    77    1
    81    37    78    1
    82    37    79    1
    83    37    80    1
    84    39    81    1
    85    41    82    1
    86    42    83    1
    87    43    84    1
    88    44    85    1
