@<TRIPOS>MOLECULE
*****
 43 45 0 0 0
SMALL
GASTEIGER

@<TRIPOS>ATOM
      1 BR         -5.8028   -1.1512   -6.2193 Br      1  LIG11      -0.0503
      2 BR         -6.0329   -5.4667    0.1866 Br      1  LIG11      -0.0472
      3 S          -7.5318    1.6526    0.2047 S.O2    1  LIG11       0.1079
      4 O          -2.1361   -0.0308   -0.6885 O.3     1  LIG11      -0.4724
      5 O          -7.1500    2.5891    1.2280 O.2     1  LIG11      -0.1383
      6 O          -8.9139    1.4177   -0.1315 O.2     1  LIG11      -0.1383
      7 O          -1.1021   -2.2783    1.1581 O.3     1  LIG11      -0.4590
      8 N          -6.8083    2.1397   -1.2087 N.3     1  LIG11      -0.1906
      9 N          -6.8317    0.1570    0.4647 N.pl3   1  LIG11      -0.1891
     10 N          -5.1840    0.3150    2.0251 N.ar    1  LIG11      -0.2186
     11 N          -2.8697    0.3415    1.5013 N.ar    1  LIG11      -0.2008
     12 N          -2.6021   -3.2361   -0.3894 N.ar    1  LIG11      -0.2022
     13 N          -2.8807   -3.4667    1.9658 N.ar    1  LIG11      -0.2022
     14 C          -4.4753    0.0456   -0.2912 C.ar    1  LIG11       0.0848
     15 C          -5.4300    0.1729    0.7131 C.ar    1  LIG11       0.1532
     16 C          -4.7928   -0.2361   -1.7085 C.ar    1  LIG11      -0.0094
     17 C          -3.1785    0.1333    0.2054 C.ar    1  LIG11       0.2276
     18 C          -5.6887   -1.2626   -2.0651 C.ar    1  LIG11      -0.0527
     19 C          -4.2149    0.5099   -2.7527 C.ar    1  LIG11      -0.0527
     20 C          -0.8335   -0.2012   -0.1205 C.3     1  LIG11       0.1252
     21 C          -5.9927   -1.5349   -3.4027 C.ar    1  LIG11      -0.0472
     22 C          -4.5112    0.2393   -4.0930 C.ar    1  LIG11      -0.0472
     23 C          -3.8949    0.4096    2.3524 C.ar    1  LIG11       0.1219
     24 C          -0.4629   -1.6791    0.0309 C.3     1  LIG11       0.1267
     25 C          -5.3989   -0.7831   -4.4109 C.ar    1  LIG11       0.0179
     26 C          -2.2298   -3.0143    0.8822 C.ar    1  LIG11       0.3180
     27 C          -3.7226   -3.9672   -0.5648 C.ar    1  LIG11       0.0483
     28 C          -3.9960   -4.1909    1.7332 C.ar    1  LIG11       0.0483
     29 C          -4.4692   -4.4709    0.4733 C.ar    1  LIG11       0.0543
     30 H          -7.1945    1.6117   -1.9920 H       1  LIG11       0.1456
     31 H          -6.9619    3.1406   -1.3326 H       1  LIG11       0.1456
     32 H          -7.2725   -0.2099    1.3084 H       1  LIG11       0.1763
     33 H          -6.1636   -1.8688   -1.2956 H       1  LIG11       0.0624
     34 H          -3.5228    1.3203   -2.5277 H       1  LIG11       0.0624
     35 H          -0.1400    0.2439   -0.8439 H       1  LIG11       0.0731
     36 H          -0.6878    0.3532    0.8132 H       1  LIG11       0.0731
     37 H          -6.6902   -2.3334   -3.6423 H       1  LIG11       0.0629
     38 H          -4.0414    0.8312   -4.8742 H       1  LIG11       0.0629
     39 H          -3.6576    0.5540    3.4008 H       1  LIG11       0.1049
     40 H           0.6117   -1.7341    0.2405 H       1  LIG11       0.0732
     41 H          -0.6134   -2.2274   -0.9059 H       1  LIG11       0.0732
     42 H          -4.0032   -4.1292   -1.6015 H       1  LIG11       0.0843
     43 H          -4.5038   -4.5449    2.6256 H       1  LIG11       0.0843
@<TRIPOS>BOND
     1     1    25    1
     2     2    29    1
     3     3     9    1
     4     3     8    1
     5     3     6    2
     6     3     5    2
     7     4    17    1
     8     4    20    1
     9     7    24    1
    10     7    26    1
    11     9    15    1
    12    10    15   ar
    13    10    23   ar
    14    11    17   ar
    15    11    23   ar
    16    12    26   ar
    17    12    27   ar
    18    13    26   ar
    19    13    28   ar
    20    14    15   ar
    21    14    17   ar
    22    16    18   ar
    23    16    19   ar
    24    16    14    1
    25    18    21   ar
    26    19    22   ar
    27    20    24    1
    28    21    25   ar
    29    22    25   ar
    30    27    29   ar
    31    28    29   ar
    32     8    30    1
    33     8    31    1
    34     9    32    1
    35    18    33    1
    36    19    34    1
    37    20    35    1
    38    20    36    1
    39    21    37    1
    40    22    38    1
    41    23    39    1
    42    24    40    1
    43    24    41    1
    44    27    42    1
    45    28    43    1
@<TRIPOS>MOLECULE
16219006
 85 88 0 0 0
SMALL
GASTEIGER

@<TRIPOS>ATOM
      1 O           4.0293   -0.9511    2.2539 O.2     1  PRO11      -0.2738
      2 O           3.3105    1.1889   -1.4294 O.2     5  ASP55      -0.2735
      3 O           2.1161   -2.0517   -1.8380 O.2     2  VAL22      -0.2738
      4 O          -0.3542    2.8399    1.4084 O.2     4  TRP44      -0.2738
      5 O          -0.2714   -1.1263    1.7448 O.2     3  LEU33      -0.2738
      6 OD1        -0.6940    3.6533   -2.6399 O.co2   5  ASP55      -0.5497
      7 OD2         0.5228    5.4498   -1.9063 O.co2   5  ASP55      -0.5497
      8 N           3.4644    1.8557    0.7200 N.am    1  PRO11      -0.2884
      9 N           4.1977   -1.1727   -0.0194 N.am    2  VAL22      -0.3022
     10 N           0.5053    1.8613   -0.4858 N.am    5  ASP55      -0.3021
     11 N           1.2357   -2.7972    0.1445 N.am    3  LEU33      -0.3025
     12 N          -1.1694   -0.2642   -0.1834 N.am    4  TRP44      -0.3022
     13 NE1        -5.6785   -0.5617    0.0543 N.ar    4  TRP44      -0.3604
     14 CA          4.6499    1.0379    0.9609 C.3     1  PRO11       0.1023
     15 CB          5.2662    1.6434    2.2225 C.3     1  PRO11      -0.0243
     16 CG          4.0662    2.2139    2.9718 C.3     1  PRO11      -0.0350
     17 CD          3.1563    2.7084    1.8590 C.3     1  PRO11       0.0156
     18 C           4.2677   -0.4496    1.1571 C.2     1  PRO11       0.2342
     19 C           2.8829    1.9222   -0.5277 C.2     5  ASP55       0.2369
     20 CA          3.6741   -2.5384   -0.0379 C.3     2  VAL22       0.1017
     21 CA          1.6109    2.7890   -0.7028 C.3     5  ASP55       0.1047
     22 CB          4.5737   -3.4959   -0.8525 C.3     2  VAL22      -0.0197
     23 CA         -0.1369   -2.4860   -0.2510 C.3     3  LEU33       0.0996
     24 C           2.2798   -2.4358   -0.6809 C.2     2  VAL22       0.2342
     25 CB          1.5753    3.3609   -2.1129 C.3     5  ASP55       0.0138
     26 CA         -1.5956    0.9966    0.4379 C.3     4  TRP44       0.1034
     27 CB         -1.0734   -3.6471    0.1016 C.3     3  LEU33      -0.0236
     28 CG         -2.5430   -3.4350   -0.3154 C.3     3  LEU33      -0.0446
     29 C          -0.4089    1.9750    0.5361 C.2     4  TRP44       0.2343
     30 CB         -2.7449    1.6452   -0.3493 C.3     4  TRP44       0.0013
     31 C          -0.5186   -1.2289    0.5433 C.2     3  LEU33       0.2340
     32 CG1         3.9652   -4.9036   -0.9269 C.3     2  VAL22      -0.0605
     33 CG2         5.9756   -3.5974   -0.2408 C.3     2  VAL22      -0.0605
     34 CG         -3.9430    0.7376   -0.4701 C.ar    4  TRP44      -0.0201
     35 CG          0.3452    4.2410   -2.2207 C.2     5  ASP55       0.0440
     36 CD1        -2.7023   -3.2813   -1.8284 C.3     3  LEU33      -0.0626
     37 CD2        -3.3970   -4.6059    0.1754 C.3     3  LEU33      -0.0626
     38 CD2        -4.4828    0.1764   -1.6742 C.ar    4  TRP44       0.0029
     39 CD1        -4.7198    0.2648    0.5711 C.ar    4  TRP44       0.0060
     40 CE2        -5.5577   -0.6379   -1.3128 C.ar    4  TRP44       0.0467
     41 CE3        -4.1513    0.2790   -3.0413 C.ar    4  TRP44      -0.0523
     42 CZ2        -6.3130   -1.3591   -2.2463 C.ar    4  TRP44      -0.0378
     43 CZ3        -4.8968   -0.4345   -3.9882 C.ar    4  TRP44      -0.0611
     44 CH2        -5.9605   -1.2426   -3.5938 C.ar    4  TRP44      -0.0598
     45 H           4.0389   -0.6116   -0.8634 H       2  VAL22       0.1495
     46 H           0.3219    1.2031   -1.2304 H       5  ASP55       0.1495
     47 H           1.4132   -2.7227    1.1442 H       3  LEU33       0.1495
     48 H          -1.2686   -0.3541   -1.1875 H       4  TRP44       0.1495
     49 HE1        -6.3766   -1.0507    0.5953 H       4  TRP44       0.1653
     50 HA          5.3468    1.1125    0.1172 H       1  PRO11       0.0597
     51 HB1         5.9407    2.4622    1.9438 H       1  PRO11       0.0288
     52 HB2         5.8333    0.9277    2.8244 H       1  PRO11       0.0288
     53 HG1         4.3438    3.0088    3.6695 H       1  PRO11       0.0281
     54 HG2         3.5676    1.4218    3.5413 H       1  PRO11       0.0281
     55 HD1         2.1001    2.6343    2.1295 H       1  PRO11       0.0465
     56 HD2         3.3906    3.7408    1.5827 H       1  PRO11       0.0465
     57 HA          3.5806   -2.9166    0.9866 H       2  VAL22       0.0597
     58 HA          1.5802    3.5955    0.0341 H       5  ASP55       0.0598
     59 HB          4.6787   -3.1176   -1.8778 H       2  VAL22       0.0318
     60 HA         -0.1674   -2.2781   -1.3238 H       3  LEU33       0.0594
     61 HB1         1.5384    2.5759   -2.8775 H       5  ASP55       0.0348
     62 HB2         2.4741    3.9588   -2.3080 H       5  ASP55       0.0348
     63 HA         -1.9102    0.7712    1.4646 H       4  TRP44       0.0598
     64 HB1        -1.0351   -3.8252    1.1851 H       3  LEU33       0.0290
     65 HB2        -0.6929   -4.5644   -0.3680 H       3  LEU33       0.0290
     66 HG         -2.9270   -2.5289    0.1673 H       3  LEU33       0.0296
     67 HB1        -2.3976    1.9258   -1.3504 H       4  TRP44       0.0337
     68 HB2        -3.0533    2.5775    0.1402 H       4  TRP44       0.0337
     69 HG11        3.8088   -5.3212    0.0740 H       2  VAL22       0.0233
     70 HG12        4.6241   -5.5844   -1.4767 H       2  VAL22       0.0233
     71 HG13        3.0015   -4.8979   -1.4459 H       2  VAL22       0.0233
     72 HG21        5.9322   -3.9634    0.7909 H       2  VAL22       0.0233
     73 HG22        6.4808   -2.6269   -0.2378 H       2  VAL22       0.0233
     74 HG23        6.5997   -4.2903   -0.8163 H       2  VAL22       0.0233
     75 HD11       -2.2511   -4.1236   -2.3629 H       3  LEU33       0.0232
     76 HD12       -2.2358   -2.3604   -2.1897 H       3  LEU33       0.0232
     77 HD13       -3.7602   -3.2374   -2.1048 H       3  LEU33       0.0232
     78 HD21       -3.0880   -5.5470   -0.2918 H       3  LEU33       0.0232
     79 HD22       -4.4536   -4.4399   -0.0610 H       3  LEU33       0.0232
     80 HD23       -3.3139   -4.7207    1.2612 H       3  LEU33       0.0232
     81 HD1        -4.6562    0.4384    1.6372 H       4  TRP44       0.0810
     82 HE3        -3.3306    0.9168   -3.3633 H       4  TRP44       0.0624
     83 HZ2        -7.1432   -1.9864   -1.9408 H       4  TRP44       0.0638
     84 HZ3        -4.6411   -0.3476   -5.0413 H       4  TRP44       0.0618
     85 HH2        -6.5277   -1.7865   -4.3451 H       4  TRP44       0.0618
@<TRIPOS>BOND
     1     1    18    2
     2     2    19    2
     3     3    24    2
     4     4    29    2
     5     5    31    2
     6     6    35   ar
     7     7    35   ar
     8     8    14    1
     9     8    17    1
    10     8    19   am
    11     9    18   am
    12     9    20    1
    13    10    21    1
    14    10    29   am
    15    11    23    1
    16    11    24   am
    17    12    26    1
    18    12    31   am
    19    13    39   ar
    20    13    40   ar
    21    14    15    1
    22    14    18    1
    23    15    16    1
    24    16    17    1
    25    19    21    1
    26    20    22    1
    27    20    24    1
    28    21    25    1
    29    22    32    1
    30    22    33    1
    31    23    27    1
    32    23    31    1
    33    25    35    1
    34    26    29    1
    35    26    30    1
    36    27    28    1
    37    28    36    1
    38    28    37    1
    39    30    34    1
    40    34    38   ar
    41    34    39   ar
    42    38    40   ar
    43    38    41   ar
    44    40    42   ar
    45    41    43   ar
    46    42    44   ar
    47    43    44   ar
    48     9    45    1
    49    10    46    1
    50    11    47    1
    51    12    48    1
    52    13    49    1
    53    14    50    1
    54    15    51    1
    55    15    52    1
    56    16    53    1
    57    16    54    1
    58    17    55    1
    59    17    56    1
    60    20    57    1
    61    21    58    1
    62    22    59    1
    63    23    60    1
    64    25    61    1
    65    25    62    1
    66    26    63    1
    67    27    64    1
    68    27    65    1
    69    28    66    1
    70    30    67    1
    71    30    68    1
    72    32    69    1
    73    32    70    1
    74    32    71    1
    75    33    72    1
    76    33    73    1
    77    33    74    1
    78    36    75    1
    79    36    76    1
    80    36    77    1
    81    37    78    1
    82    37    79    1
    83    37    80    1
    84    39    81    1
    85    41    82    1
    86    42    83    1
    87    43    84    1
    88    44    85    1
