@<TRIPOS>MOLECULE
9911482
 51 53 0 0 0
SMALL
GASTEIGER

@<TRIPOS>ATOM
      1 S           0.6414   -1.9646    1.8962 S.O2    1  LIG11       0.0758
      2 S          -2.0918   -4.1231   -0.5696 S.2     1  LIG11      -0.0902
      3 O           3.7575   -1.5361    2.2201 O.2     1  LIG11      -0.3377
      4 O          -0.2585   -0.8985    2.2770 O.2     1  LIG11      -0.1499
      5 O           1.2889   -2.8065    2.8788 O.2     1  LIG11      -0.1499
      6 O          -0.1651   -0.7416   -0.8024 O.2     1  LIG11      -0.2692
      7 O          -0.8736    2.3109   -0.9564 O.2     1  LIG11      -0.2923
      8 N          -2.0595   -1.4725   -1.8788 N.am    1  LIG11      -0.2802
      9 N           1.7643   -1.3518    0.7984 N.pl3   1  LIG11      -0.1831
     10 N           4.7861   -0.7317    2.6675 N.ar    1  LIG11      -0.0810
     11 C          -2.2483   -0.4107   -2.7981 C.ar    1  LIG11       0.0471
     12 C          -0.4147   -3.0683    1.0577 C.ar    1  LIG11       0.1277
     13 C          -2.7090   -0.7388   -4.0969 C.ar    1  LIG11      -0.0283
     14 C          -2.0278    0.9502   -2.4880 C.ar    1  LIG11       0.0388
     15 C          -1.0980   -2.7890   -0.1155 C.ar    1  LIG11       0.1007
     16 C          -2.6608    1.6247   -4.7425 C.ar    1  LIG11      -0.0494
     17 C          -2.9208    0.2872   -5.0421 C.ar    1  LIG11      -0.0541
     18 C          -2.2135    1.9473   -3.4621 C.ar    1  LIG11      -0.0466
     19 C          -1.0534   -1.5762   -0.9305 C.2     1  LIG11       0.2568
     20 C           2.9062   -0.8103    1.4459 C.ar    1  LIG11       0.2399
     21 C          -0.7286   -4.3646    1.5798 C.ar    1  LIG11      -0.0273
     22 C           3.3512    0.4927    1.3747 C.ar    1  LIG11       0.0350
     23 C          -2.9724   -2.1423   -4.5853 C.3     1  LIG11      -0.0379
     24 C          -1.7683    1.4842   -1.1254 C.2     1  LIG11       0.1619
     25 C           4.5330    0.4837    2.1715 C.ar    1  LIG11       0.0854
     26 C          -1.6263   -5.0411    0.7893 C.ar    1  LIG11      -0.0217
     27 C          -2.9111    2.7079   -5.7493 C.3     1  LIG11      -0.0397
     28 C           2.7388    1.6626    0.7034 C.3     1  LIG11      -0.0330
     29 C           5.4303    1.6155    2.5021 C.3     1  LIG11      -0.0188
     30 C          -2.7026    1.0771   -0.0144 C.3     1  LIG11      -0.0013
     31 H          -2.5568   -2.3353   -2.0576 H       1  LIG11       0.1552
     32 H           1.2769   -0.7005    0.1674 H       1  LIG11       0.1768
     33 H          -3.2820    0.0274   -6.0376 H       1  LIG11       0.0623
     34 H          -2.0431    2.9914   -3.1993 H       1  LIG11       0.0628
     35 H          -0.3190   -4.7719    2.4987 H       1  LIG11       0.0643
     36 H          -2.5947   -2.9212   -3.9209 H       1  LIG11       0.0278
     37 H          -4.0483   -2.2939   -4.7184 H       1  LIG11       0.0278
     38 H          -2.4715   -2.2988   -5.5479 H       1  LIG11       0.0278
     39 H          -2.0344   -6.0302    0.9531 H       1  LIG11       0.0694
     40 H          -3.0822    2.2941   -6.7485 H       1  LIG11       0.0278
     41 H          -3.7949    3.2872   -5.4631 H       1  LIG11       0.0278
     42 H          -2.0471    3.3773   -5.8124 H       1  LIG11       0.0278
     43 H           1.8737    1.3874    0.0948 H       1  LIG11       0.0280
     44 H           2.4033    2.3891    1.4515 H       1  LIG11       0.0280
     45 H           3.4658    2.1552    0.0503 H       1  LIG11       0.0280
     46 H           6.3533    1.2713    2.9811 H       1  LIG11       0.0294
     47 H           5.7076    2.1668    1.5985 H       1  LIG11       0.0294
     48 H           4.9297    2.3052    3.1892 H       1  LIG11       0.0294
     49 H          -3.0203    1.9757    0.5228 H       1  LIG11       0.0309
     50 H          -3.6019    0.5937   -0.4054 H       1  LIG11       0.0309
     51 H          -2.1965    0.4041    0.6786 H       1  LIG11       0.0309
@<TRIPOS>BOND
     1     1     4    2
     2     1     5    2
     3     1     9    1
     4     1    12    1
     5     2    15   ar
     6     2    26   ar
     7     3    10   ar
     8     3    20   ar
     9     6    19    2
    10     7    24    2
    11     8    11    1
    12     8    19   am
    13     9    20    1
    14    10    25   ar
    15    11    13   ar
    16    11    14   ar
    17    12    15   ar
    18    12    21   ar
    19    13    17   ar
    20    13    23    1
    21    14    18   ar
    22    14    24    1
    23    15    19    1
    24    16    17   ar
    25    16    18   ar
    26    16    27    1
    27    20    22   ar
    28    21    26   ar
    29    22    25   ar
    30    22    28    1
    31    24    30    1
    32    25    29    1
    33     8    31    1
    34     9    32    1
    35    17    33    1
    36    18    34    1
    37    21    35    1
    38    23    36    1
    39    23    37    1
    40    23    38    1
    41    26    39    1
    42    27    40    1
    43    27    41    1
    44    27    42    1
    45    28    43    1
    46    28    44    1
    47    28    45    1
    48    29    46    1
    49    29    47    1
    50    29    48    1
    51    30    49    1
    52    30    50    1
    53    30    51    1
@<TRIPOS>MOLECULE
16219006
 85 88 0 0 0
SMALL
GASTEIGER

@<TRIPOS>ATOM
      1 O           4.2437   -1.0901    2.3041 O.2     1  PRO11      -0.2738
      2 O           3.1957    1.0014   -1.3012 O.2     5  ASP55      -0.2735
      3 O           2.1036   -2.2991   -1.8811 O.2     2  VAL22      -0.2738
      4 O          -0.5330    3.0215    1.2040 O.2     4  TRP44      -0.2738
      5 O          -0.4964   -1.0908    1.7574 O.2     3  LEU33      -0.2738
      6 OD1         3.6407    4.5518   -1.0967 O.co2   5  ASP55      -0.5497
      7 OD2         2.9566    5.0066   -3.2262 O.co2   5  ASP55      -0.5497
      8 N           3.4802    1.7492    0.8209 N.am    1  PRO11      -0.2884
      9 N           4.1427   -1.2015    0.0202 N.am    2  VAL22      -0.3022
     10 N           0.5140    1.9237   -0.5173 N.am    5  ASP55      -0.3021
     11 N           1.2292   -2.6783    0.1988 N.am    3  LEU33      -0.3025
     12 N          -1.2168   -0.2325   -0.2451 N.am    4  TRP44      -0.3022
     13 NE1        -1.7022    2.9387   -3.7347 N.ar    4  TRP44      -0.3604
     14 CA          4.6919    0.9613    1.0320 C.3     1  PRO11       0.1023
     15 CB          5.3286    1.5730    2.2826 C.3     1  PRO11      -0.0243
     16 CG          4.1455    2.1730    3.0320 C.3     1  PRO11      -0.0350
     17 CD          3.2602    2.6857    1.9084 C.3     1  PRO11       0.0156
     18 C           4.3452   -0.5350    1.2115 C.2     1  PRO11       0.2342
     19 C           2.8955    1.8277   -0.4276 C.2     5  ASP55       0.2369
     20 CA          3.6708   -2.5797   -0.0383 C.3     2  VAL22       0.1017
     21 CA          1.6977    2.7909   -0.6126 C.3     5  ASP55       0.1047
     22 CB          4.6204   -3.4717   -0.8693 C.3     2  VAL22      -0.0197
     23 CA         -0.1402   -2.4342   -0.2296 C.3     3  LEU33       0.0996
     24 C           2.2750   -2.5175   -0.6834 C.2     2  VAL22       0.2342
     25 CB          1.7279    3.4560   -1.9772 C.3     5  ASP55       0.0138
     26 CA         -1.6403    1.0550    0.3190 C.3     4  TRP44       0.1034
     27 CB         -1.0582   -3.6211    0.0896 C.3     3  LEU33      -0.0236
     28 CG         -0.7045   -4.9259   -0.6544 C.3     3  LEU33      -0.0446
     29 C          -0.4792    2.0731    0.4217 C.2     4  TRP44       0.2343
     30 CB         -2.8183    1.6598   -0.4696 C.3     4  TRP44       0.0013
     31 C          -0.6228   -1.1941    0.5386 C.2     3  LEU33       0.2340
     32 CG1         4.0798   -4.9043   -0.9739 C.3     2  VAL22      -0.0605
     33 CG2         6.0238   -3.5129   -0.2539 C.3     2  VAL22      -0.0605
     34 CG         -2.5057    1.9340   -1.9126 C.ar    4  TRP44      -0.0201
     35 CG          2.8957    4.4230   -2.1061 C.2     5  ASP55       0.0440
     36 CD1        -1.6451   -6.0473   -0.2042 C.3     3  LEU33      -0.0626
     37 CD2        -0.7783   -4.7752   -2.1747 C.3     3  LEU33      -0.0626
     38 CD2        -2.6018    1.0272   -3.0175 C.ar    4  TRP44       0.0029
     39 CD1        -2.0023    3.1185   -2.4125 C.ar    4  TRP44       0.0060
     40 CE2        -2.0673    1.6735   -4.1325 C.ar    4  TRP44       0.0467
     41 CE3        -3.0483   -0.3033   -3.1629 C.ar    4  TRP44      -0.0523
     42 CZ2        -1.9427    1.0536   -5.3807 C.ar    4  TRP44      -0.0378
     43 CZ3        -2.9314   -0.9383   -4.4049 C.ar    4  TRP44      -0.0611
     44 CH2        -2.3833   -0.2676   -5.4955 C.ar    4  TRP44      -0.0598
     45 H           3.9513   -0.6025   -0.7923 H       2  VAL22       0.1495
     46 H           0.5195    1.1113   -1.1178 H       5  ASP55       0.1495
     47 H           1.4233   -2.5292    1.1869 H       3  LEU33       0.1495
     48 H          -1.0668   -0.2688   -1.2480 H       4  TRP44       0.1495
     49 HE1        -1.2392    3.6220   -4.3220 H       4  TRP44       0.1653
     50 HA          5.3673    1.0610    0.1729 H       1  PRO11       0.0597
     51 HB1         6.0128    2.3787    1.9880 H       1  PRO11       0.0288
     52 HB2         5.8923    0.8597    2.8911 H       1  PRO11       0.0288
     53 HG1         4.4383    2.9623    3.7298 H       1  PRO11       0.0281
     54 HG2         3.6244    1.3910    3.5974 H       1  PRO11       0.0281
     55 HD1         2.2049    2.7130    2.1931 H       1  PRO11       0.0465
     56 HD2         3.5757    3.6814    1.5805 H       1  PRO11       0.0465
     57 HA          3.5848   -2.9888    0.9754 H       2  VAL22       0.0597
     58 HA          1.6535    3.5474    0.1732 H       5  ASP55       0.0598
     59 HB          4.7095   -3.0667   -1.8863 H       2  VAL22       0.0318
     60 HA         -0.1727   -2.2160   -1.3013 H       3  LEU33       0.0594
     61 HB1         0.8067    4.0281   -2.1339 H       5  ASP55       0.0348
     62 HB2         1.7927    2.7147   -2.7834 H       5  ASP55       0.0348
     63 HA         -1.9713    0.8676    1.3483 H       4  TRP44       0.0598
     64 HB1        -2.0953   -3.3416   -0.1427 H       3  LEU33       0.0290
     65 HB2        -1.0335   -3.8155    1.1712 H       3  LEU33       0.0290
     66 HG          0.3176   -5.2236   -0.3879 H       3  LEU33       0.0296
     67 HB1        -3.1379    2.5948    0.0093 H       4  TRP44       0.0337
     68 HB2        -3.6755    0.9764   -0.4176 H       4  TRP44       0.0337
     69 HG11        3.9363   -5.3465    0.0175 H       2  VAL22       0.0233
     70 HG12        4.7738   -5.5418   -1.5314 H       2  VAL22       0.0233
     71 HG13        3.1196   -4.9342   -1.4997 H       2  VAL22       0.0233
     72 HG21        5.9931   -3.8847    0.7755 H       2  VAL22       0.0233
     73 HG22        6.4834   -2.5201   -0.2444 H       2  VAL22       0.0233
     74 HG23        6.6802   -4.1718   -0.8312 H       2  VAL22       0.0233
     75 HD11       -2.6861   -5.8169   -0.4548 H       3  LEU33       0.0232
     76 HD12       -1.5815   -6.1987    0.8784 H       3  LEU33       0.0232
     77 HD13       -1.3821   -6.9936   -0.6884 H       3  LEU33       0.0232
     78 HD21       -1.7558   -4.3960   -2.4894 H       3  LEU33       0.0232
     79 HD22       -0.6143   -5.7389   -2.6687 H       3  LEU33       0.0232
     80 HD23       -0.0107   -4.0910   -2.5465 H       3  LEU33       0.0232
     81 HD1        -1.7579    4.0523   -1.9206 H       4  TRP44       0.0810
     82 HE3        -3.4709   -0.8386   -2.3185 H       4  TRP44       0.0624
     83 HZ2        -1.5051    1.5726   -6.2281 H       4  TRP44       0.0638
     84 HZ3        -3.2642   -1.9672   -4.5169 H       4  TRP44       0.0618
     85 HH2        -2.2881   -0.7789   -6.4507 H       4  TRP44       0.0618
@<TRIPOS>BOND
     1     1    18    2
     2     2    19    2
     3     3    24    2
     4     4    29    2
     5     5    31    2
     6     6    35   ar
     7     7    35   ar
     8     8    14    1
     9     8    17    1
    10     8    19   am
    11     9    18   am
    12     9    20    1
    13    10    21    1
    14    10    29   am
    15    11    23    1
    16    11    24   am
    17    12    26    1
    18    12    31   am
    19    13    39   ar
    20    13    40   ar
    21    14    15    1
    22    14    18    1
    23    15    16    1
    24    16    17    1
    25    19    21    1
    26    20    22    1
    27    20    24    1
    28    21    25    1
    29    22    32    1
    30    22    33    1
    31    23    27    1
    32    23    31    1
    33    25    35    1
    34    26    29    1
    35    26    30    1
    36    27    28    1
    37    28    36    1
    38    28    37    1
    39    30    34    1
    40    34    38   ar
    41    34    39   ar
    42    38    40   ar
    43    38    41   ar
    44    40    42   ar
    45    41    43   ar
    46    42    44   ar
    47    43    44   ar
    48     9    45    1
    49    10    46    1
    50    11    47    1
    51    12    48    1
    52    13    49    1
    53    14    50    1
    54    15    51    1
    55    15    52    1
    56    16    53    1
    57    16    54    1
    58    17    55    1
    59    17    56    1
    60    20    57    1
    61    21    58    1
    62    22    59    1
    63    23    60    1
    64    25    61    1
    65    25    62    1
    66    26    63    1
    67    27    64    1
    68    27    65    1
    69    28    66    1
    70    30    67    1
    71    30    68    1
    72    32    69    1
    73    32    70    1
    74    32    71    1
    75    33    72    1
    76    33    73    1
    77    33    74    1
    78    36    75    1
    79    36    76    1
    80    36    77    1
    81    37    78    1
    82    37    79    1
    83    37    80    1
    84    39    81    1
    85    41    82    1
    86    42    83    1
    87    43    84    1
    88    44    85    1
