@<TRIPOS>MOLECULE
23693553
 97 99 0 0 0
SMALL
GASTEIGER

@<TRIPOS>ATOM
      1 O           3.1958   -2.0988    1.4990 O.2     1  LIG11      -0.2526
      2 O           2.0400   -0.5256   -1.7341 O.2     1  LIG11      -0.2731
      3 O          -0.8869   -0.0879    1.1429 O.2     1  LIG11      -0.2689
      4 O           2.1964    2.8709   -2.8516 O.co2   1  LIG11      -0.5479
      5 OXT         0.1641    1.8208   -2.7817 O.co2   1  LIG11      -0.5479
      6 O          -3.7017    6.7740   -0.4191 O.3     1  LIG11      -0.4515
      7 O          -4.9310    7.3674    1.4525 O.2     1  LIG11      -0.2227
      8 N           4.2687   -3.4748   -0.0164 N.am    1  LIG11      -0.2801
      9 N           2.0670   -2.7525   -0.3597 N.am    1  LIG11      -0.2879
     10 N           0.6937    0.6906   -0.3181 N.am    1  LIG11      -0.2273
     11 N          -1.6598    2.3391   -1.4014 N.4     1  LIG11       0.2276
     12 N          -4.2704    5.1835    1.0944 N.ar    1  LIG11      -0.2526
     13 C           4.2776   -4.2519   -1.2763 C.3     1  LIG11       0.0249
     14 C           5.4949   -3.3984    0.8008 C.3     1  LIG11       0.0249
     15 C           5.1878   -5.4952   -1.2581 C.3     1  LIG11      -0.0344
     16 C           6.4385   -4.6003    0.6516 C.3     1  LIG11      -0.0344
     17 C           5.7114   -5.8253    0.1282 C.3     1  LIG11      -0.0497
     18 CA          0.9324   -1.8661   -0.0673 C.3     1  LIG11       0.1019
     19 C          -0.7380   -3.2532   -1.7253 C.3     1  LIG11      -0.0356
     20 C          -0.4153   -2.5561   -0.3725 C.3     1  LIG11      -0.0210
     21 C           3.1812   -2.7264    0.4418 C.2     1  LIG11       0.3033
     22 C           4.6155   -3.3733   -2.4869 C.3     1  LIG11      -0.0464
     23 C           6.2535   -2.0889    0.5606 C.3     1  LIG11      -0.0464
     24 C           1.2627   -0.5133   -0.7689 C.2     1  LIG11       0.2429
     25 C          -2.1805   -3.8095   -1.6050 C.3     1  LIG11      -0.0600
     26 C           0.1805   -4.4457   -2.0322 C.3     1  LIG11      -0.0600
     27 C          -0.7053   -2.2605   -2.8930 C.3     1  LIG11      -0.0600
     28 CA          1.3951    1.9304   -0.7860 C.3     1  LIG11       0.0730
     29 C           2.7221    2.1649   -0.0404 C.3     1  LIG11      -0.0286
     30 C          -0.5523    0.7448    0.2966 C.2     1  LIG11       0.2708
     31 CA         -1.4806    1.9680    0.0435 C.3     1  LIG11       0.0579
     32 C           2.4448    2.6052    1.4124 C.3     1  LIG11      -0.0513
     33 C          -2.8868    1.7466    0.6456 C.3     1  LIG11       0.0261
     34 C           1.3112    2.1641   -2.3208 C.2     1  LIG11       0.0626
     35 C          -3.5645    3.0271    1.0488 C.ar    1  LIG11      -0.0158
     36 C           3.6194    3.3068    2.0920 C.3     1  LIG11      -0.0558
     37 C          -4.2069    3.2734    2.2997 C.ar    1  LIG11       0.0038
     38 C          -3.6939    4.1845    0.3123 C.ar    1  LIG11       0.0202
     39 C          -4.6693    4.5948    2.2973 C.ar    1  LIG11       0.0598
     40 C           4.7867    2.3841    2.3858 C.3     1  LIG11      -0.0653
     41 C          -4.4263    2.4784    3.4471 C.ar    1  LIG11      -0.0523
     42 C          -5.3600    5.1289    3.4010 C.ar    1  LIG11      -0.0371
     43 C          -5.1059    3.0086    4.5462 C.ar    1  LIG11      -0.0611
     44 C          -4.3722    6.5463    0.7424 C.2     1  LIG11       0.4196
     45 C          -5.5711    4.3159    4.5188 C.ar    1  LIG11      -0.0598
     46 C          -3.5743    8.1563   -0.7580 C.3     1  LIG11       0.0835
     47 H           2.3154   -2.7179   -1.3373 H       1  LIG11       0.1510
     48 H1         -2.5873    2.2064   -1.8066 H       1  LIG11       0.2002
     49 H2         -1.3406    3.2929   -1.6092 H       1  LIG11       0.2002
     50 H3         -1.0067    1.8092   -2.0472 H       1  LIG11       0.2002
     51 H           3.2596   -4.6296   -1.4224 H       1  LIG11       0.0498
     52 H           5.1702   -3.3907    1.8502 H       1  LIG11       0.0498
     53 H           4.6417   -6.3557   -1.6636 H       1  LIG11       0.0283
     54 H           6.0451   -5.3501   -1.9295 H       1  LIG11       0.0283
     55 H           7.2650   -4.3584   -0.0296 H       1  LIG11       0.0283
     56 H           6.9013   -4.8237    1.6205 H       1  LIG11       0.0283
     57 H           4.8908   -6.1100    0.7968 H       1  LIG11       0.0266
     58 H           6.3996   -6.6759    0.0729 H       1  LIG11       0.0266
     59 HA          0.9520   -1.6600    1.0094 H       1  LIG11       0.0595
     60 H          -0.5424   -3.3172    0.4125 H       1  LIG11       0.0293
     61 H          -1.2255   -1.8416   -0.2087 H       1  LIG11       0.0293
     62 H           5.6402   -2.9930   -2.4270 H       1  LIG11       0.0248
     63 H           4.5234   -3.9480   -3.4152 H       1  LIG11       0.0248
     64 H           3.9541   -2.5066   -2.5670 H       1  LIG11       0.0248
     65 H           6.6111   -2.0202   -0.4717 H       1  LIG11       0.0248
     66 H           5.6186   -1.2164    0.7455 H       1  LIG11       0.0248
     67 H           7.1211   -2.0180    1.2252 H       1  LIG11       0.0248
     68 H          -2.9015   -3.0092   -1.4031 H       1  LIG11       0.0235
     69 H          -2.4957   -4.3132   -2.5257 H       1  LIG11       0.0235
     70 H          -2.2544   -4.5381   -0.7885 H       1  LIG11       0.0235
     71 H           1.1580   -4.1264   -2.3997 H       1  LIG11       0.0235
     72 H           0.3270   -5.0751   -1.1475 H       1  LIG11       0.0235
     73 H          -0.2471   -5.0805   -2.8177 H       1  LIG11       0.0235
     74 H           0.3115   -1.9198   -3.1043 H       1  LIG11       0.0235
     75 H          -1.0880   -2.7229   -3.8104 H       1  LIG11       0.0235
     76 H          -1.3245   -1.3812   -2.6835 H       1  LIG11       0.0235
     77 HA          0.7855    2.7801   -0.4617 H       1  LIG11       0.0567
     78 H           3.3428    1.2620   -0.0425 H       1  LIG11       0.0287
     79 H           3.2977    2.9479   -0.5468 H       1  LIG11       0.0287
     80 HA         -1.0142    2.8308    0.5343 H       1  LIG11       0.0952
     81 H           1.6075    3.3148    1.4267 H       1  LIG11       0.0266
     82 H           2.1272    1.7402    2.0072 H       1  LIG11       0.0266
     83 H          -3.5293    1.2061   -0.0620 H       1  LIG11       0.0374
     84 H          -2.8250    1.1088    1.5332 H       1  LIG11       0.0374
     85 H           3.9577    4.1501    1.4786 H       1  LIG11       0.0263
     86 H           3.2653    3.7327    3.0393 H       1  LIG11       0.0263
     87 H          -3.3867    4.4301   -0.6946 H       1  LIG11       0.0818
     88 H           5.2322    1.9991    1.4645 H       1  LIG11       0.0230
     89 H           5.5616    2.9288    2.9351 H       1  LIG11       0.0230
     90 H           4.4692    1.5369    3.0017 H       1  LIG11       0.0230
     91 H          -4.0733    1.4511    3.4899 H       1  LIG11       0.0624
     92 H          -5.7233    6.1534    3.4068 H       1  LIG11       0.0638
     93 H          -5.2698    2.3923    5.4272 H       1  LIG11       0.0618
     94 H          -6.1001    4.7179    5.3801 H       1  LIG11       0.0618
     95 H          -2.7655    8.2476   -1.4887 H       1  LIG11       0.0661
     96 H          -4.5022    8.5133   -1.2122 H       1  LIG11       0.0661
     97 H          -3.3101    8.7622    0.1150 H       1  LIG11       0.0661
@<TRIPOS>BOND
     1     1    21    2
     2     2    24    2
     3     3    30    2
     4     4    34   ar
     5     5    34   ar
     6     6    44    1
     7     6    46    1
     8     7    44    2
     9     8    13    1
    10     8    14    1
    11     9    21   am
    12    10    24   am
    13    10    30   am
    14    12    39   ar
    15    12    38   ar
    16    12    44   am
    17    13    15    1
    18    13    22    1
    19    14    16    1
    20    14    23    1
    21    15    17    1
    22    16    17    1
    23    18     9    1
    24    18    24    1
    25    18    20    1
    26    19    20    1
    27    19    27    1
    28    19    26    1
    29    19    25    1
    30    21     8   am
    31    28    34    1
    32    28    29    1
    33    28    10    1
    34    29    32    1
    35    31    33    1
    36    31    11    1
    37    31    30    1
    38    32    36    1
    39    33    35    1
    40    35    38   ar
    41    35    37   ar
    42    36    40    1
    43    37    39   ar
    44    37    41   ar
    45    39    42   ar
    46    41    43   ar
    47    42    45   ar
    48    43    45   ar
    49     9    47    1
    50    11    48    1
    51    11    49    1
    52    11    50    1
    53    13    51    1
    54    14    52    1
    55    15    53    1
    56    15    54    1
    57    16    55    1
    58    16    56    1
    59    17    57    1
    60    17    58    1
    61    18    59    1
    62    20    60    1
    63    20    61    1
    64    22    62    1
    65    22    63    1
    66    22    64    1
    67    23    65    1
    68    23    66    1
    69    23    67    1
    70    25    68    1
    71    25    69    1
    72    25    70    1
    73    26    71    1
    74    26    72    1
    75    26    73    1
    76    27    74    1
    77    27    75    1
    78    27    76    1
    79    28    77    1
    80    29    78    1
    81    29    79    1
    82    31    80    1
    83    32    81    1
    84    32    82    1
    85    33    83    1
    86    33    84    1
    87    36    85    1
    88    36    86    1
    89    38    87    1
    90    40    88    1
    91    40    89    1
    92    40    90    1
    93    41    91    1
    94    42    92    1
    95    43    93    1
    96    45    94    1
    97    46    95    1
    98    46    96    1
    99    46    97    1
@<TRIPOS>MOLECULE
16219006
 85 88 0 0 0
SMALL
GASTEIGER

@<TRIPOS>ATOM
      1 O           4.5485   -0.9717    2.1928 O.2     1  PRO11      -0.2738
      2 O           3.3858    1.2213   -1.4248 O.2     5  ASP55      -0.2735
      3 O           1.9003   -1.6917   -1.7321 O.2     2  VAL22      -0.2738
      4 O           0.0522    2.4408    1.5695 O.2     4  TRP44      -0.2738
      5 O          -0.5989   -1.3451    1.7792 O.2     3  LEU33      -0.2738
      6 OD1         0.6458    5.5018   -2.1487 O.co2   5  ASP55      -0.5497
      7 OD2        -0.4878    3.5804   -2.6685 O.co2   5  ASP55      -0.5497
      8 N           3.5427    1.9040    0.7162 N.am    1  PRO11      -0.2884
      9 N           4.1061   -1.0169   -0.0518 N.am    2  VAL22      -0.3022
     10 N           0.4985    1.9417   -0.6340 N.am    5  ASP55      -0.3021
     11 N           1.1369   -2.8662    0.0743 N.am    3  LEU33      -0.3025
     12 N          -1.1439   -0.3005   -0.2013 N.am    4  TRP44      -0.3022
     13 NE1        -3.5693    5.0924    0.4996 N.ar    4  TRP44      -0.3604
     14 CA          4.7667    1.1286    0.9430 C.3     1  PRO11       0.1023
     15 CB          5.3753    1.7517    2.2029 C.3     1  PRO11      -0.0243
     16 CG          4.1607    2.2689    2.9619 C.3     1  PRO11      -0.0350
     17 CD          3.2550    2.7701    1.8489 C.3     1  PRO11       0.0156
     18 C           4.4570   -0.3779    1.1198 C.2     1  PRO11       0.2342
     19 C           2.9410    1.9502   -0.5253 C.2     5  ASP55       0.2369
     20 CA          3.5526   -2.3626   -0.0675 C.3     2  VAL22       0.1017
     21 CA          1.6755    2.8203   -0.7360 C.3     5  ASP55       0.1047
     22 CB          4.4297   -3.3745   -0.8393 C.3     2  VAL22      -0.0197
     23 CA         -0.2543   -2.5829   -0.2737 C.3     3  LEU33       0.0996
     24 C           2.1349   -2.2633   -0.6685 C.2     2  VAL22       0.2342
     25 CB          1.7785    3.4399   -2.1294 C.3     5  ASP55       0.0138
     26 CA         -1.5068    0.9768    0.4372 C.3     4  TRP44       0.1034
     27 CB         -1.1559   -3.7742    0.0754 C.3     3  LEU33      -0.0236
     28 CG         -2.6464   -3.5628   -0.2666 C.3     3  LEU33      -0.0446
     29 C          -0.2387    1.8498    0.5318 C.2     4  TRP44       0.2343
     30 CB         -2.6427    1.6411   -0.3463 C.3     4  TRP44       0.0013
     31 C          -0.6714   -1.3528    0.5515 C.2     3  LEU33       0.2340
     32 CG1         5.7356   -3.6471   -0.0850 C.3     2  VAL22      -0.0605
     33 CG2         4.7550   -2.9539   -2.2766 C.3     2  VAL22      -0.0605
     34 CG         -3.1490    2.9179    0.2450 C.ar    4  TRP44      -0.0201
     35 CG          0.5269    4.2646   -2.3371 C.2     5  ASP55       0.0440
     36 CD1        -2.8780   -3.3316   -1.7600 C.3     3  LEU33      -0.0626
     37 CD2        -3.4624   -4.7682    0.2042 C.3     3  LEU33      -0.0626
     38 CD2        -3.8667    3.1073    1.4696 C.ar    4  TRP44       0.0029
     39 CD1        -2.9990    4.1659   -0.3244 C.ar    4  TRP44       0.0060
     40 CE2        -4.1192    4.4753    1.5986 C.ar    4  TRP44       0.0467
     41 CE3        -4.3169    2.2458    2.4918 C.ar    4  TRP44      -0.0523
     42 CZ2        -4.7998    5.0226    2.6930 C.ar    4  TRP44      -0.0378
     43 CZ3        -4.9919    2.7779    3.5977 C.ar    4  TRP44      -0.0611
     44 CH2        -5.2301    4.1465    3.6934 C.ar    4  TRP44      -0.0598
     45 H           3.8522   -0.4074   -0.8401 H       2  VAL22       0.1495
     46 H          -0.0660    1.9567   -1.4857 H       5  ASP55       0.1495
     47 H           1.3173   -2.9578    1.0702 H       3  LEU33       0.1495
     48 H          -0.7654   -0.2242   -1.1412 H       4  TRP44       0.1495
     49 HE1        -3.5657    6.0873    0.3284 H       4  TRP44       0.1653
     50 HA          5.4511    1.2374    0.0946 H       1  PRO11       0.0597
     51 HB1         6.0125    2.6000    1.9222 H       1  PRO11       0.0288
     52 HB2         5.9788    1.0612    2.7996 H       1  PRO11       0.0288
     53 HG1         4.4085    3.0495    3.6855 H       1  PRO11       0.0281
     54 HG2         3.6767    1.4455    3.4993 H       1  PRO11       0.0281
     55 HD1         2.2104    2.7221    2.1407 H       1  PRO11       0.0465
     56 HD2         3.5021    3.7994    1.5626 H       1  PRO11       0.0465
     57 HA          3.4524   -2.7155    0.9654 H       2  VAL22       0.0597
     58 HA          1.6119    3.6098    0.0175 H       5  ASP55       0.0598
     59 HB          3.8803   -4.3231   -0.8948 H       2  VAL22       0.0318
     60 HA         -0.3195   -2.3671   -1.3442 H       3  LEU33       0.0594
     61 HB1         1.8364    2.6756   -2.9159 H       5  ASP55       0.0348
     62 HB2         2.6750    4.0638   -2.2156 H       5  ASP55       0.0348
     63 HA         -1.8291    0.7639    1.4633 H       4  TRP44       0.0598
     64 HB1        -1.0671   -3.9942    1.1489 H       3  LEU33       0.0290
     65 HB2        -0.7844   -4.6667   -0.4466 H       3  LEU33       0.0290
     66 HG         -3.0199   -2.6858    0.2765 H       3  LEU33       0.0296
     67 HB1        -3.4858    0.9400   -0.4133 H       4  TRP44       0.0337
     68 HB2        -2.3319    1.8176   -1.3838 H       4  TRP44       0.0337
     69 HG11        6.3668   -2.7525   -0.0341 H       2  VAL22       0.0233
     70 HG12        6.3132   -4.4348   -0.5820 H       2  VAL22       0.0233
     71 HG13        5.5344   -3.9811    0.9390 H       2  VAL22       0.0233
     72 HG21        5.2890   -1.9982   -2.3112 H       2  VAL22       0.0233
     73 HG22        3.8489   -2.8632   -2.8830 H       2  VAL22       0.0233
     74 HG23        5.3895   -3.7047   -2.7619 H       2  VAL22       0.0233
     75 HD11       -2.4563   -4.1463   -2.3586 H       3  LEU33       0.0232
     76 HD12       -2.4270   -2.3924   -2.0958 H       3  LEU33       0.0232
     77 HD13       -3.9494   -3.2681   -1.9824 H       3  LEU33       0.0232
     78 HD21       -3.1493   -5.6852   -0.3069 H       3  LEU33       0.0232
     79 HD22       -4.5293   -4.6158    0.0056 H       3  LEU33       0.0232
     80 HD23       -3.3441   -4.9209    1.2817 H       3  LEU33       0.0232
     81 HD1        -2.5030    4.4718   -1.2399 H       4  TRP44       0.0810
     82 HE3        -4.1281    1.1780    2.4333 H       4  TRP44       0.0624
     83 HZ2        -4.9764    6.0900    2.7704 H       4  TRP44       0.0638
     84 HZ3        -5.3228    2.1134    4.3910 H       4  TRP44       0.0618
     85 HH2        -5.7496    4.5425    4.5621 H       4  TRP44       0.0618
@<TRIPOS>BOND
     1     1    18    2
     2     2    19    2
     3     3    24    2
     4     4    29    2
     5     5    31    2
     6     6    35   ar
     7     7    35   ar
     8     8    14    1
     9     8    17    1
    10     8    19   am
    11     9    18   am
    12     9    20    1
    13    10    21    1
    14    10    29   am
    15    11    23    1
    16    11    24   am
    17    12    26    1
    18    12    31   am
    19    13    39   ar
    20    13    40   ar
    21    14    15    1
    22    14    18    1
    23    15    16    1
    24    16    17    1
    25    19    21    1
    26    20    22    1
    27    20    24    1
    28    21    25    1
    29    22    32    1
    30    22    33    1
    31    23    27    1
    32    23    31    1
    33    25    35    1
    34    26    29    1
    35    26    30    1
    36    27    28    1
    37    28    36    1
    38    28    37    1
    39    30    34    1
    40    34    38   ar
    41    34    39   ar
    42    38    40   ar
    43    38    41   ar
    44    40    42   ar
    45    41    43   ar
    46    42    44   ar
    47    43    44   ar
    48     9    45    1
    49    10    46    1
    50    11    47    1
    51    12    48    1
    52    13    49    1
    53    14    50    1
    54    15    51    1
    55    15    52    1
    56    16    53    1
    57    16    54    1
    58    17    55    1
    59    17    56    1
    60    20    57    1
    61    21    58    1
    62    22    59    1
    63    23    60    1
    64    25    61    1
    65    25    62    1
    66    26    63    1
    67    27    64    1
    68    27    65    1
    69    28    66    1
    70    30    67    1
    71    30    68    1
    72    32    69    1
    73    32    70    1
    74    32    71    1
    75    33    72    1
    76    33    73    1
    77    33    74    1
    78    36    75    1
    79    36    76    1
    80    36    77    1
    81    37    78    1
    82    37    79    1
    83    37    80    1
    84    39    81    1
    85    41    82    1
    86    42    83    1
    87    43    84    1
    88    44    85    1
