@<TRIPOS>MOLECULE
11672244
 106 111 0 0 0
SMALL
GASTEIGER

@<TRIPOS>ATOM
      1 O          -0.7076   -0.4709    1.3353 O.3     1  LIG11      -0.4607
      2 O           3.8011    4.8109    0.8219 O.2     1  LIG11      -0.2968
      3 O           0.3671   -5.2068   -2.6123 O.co2   1  LIG11      -0.5492
      4 O           1.0116   -6.6326   -0.9676 O.co2   1  LIG11      -0.5492
      5 O          -2.8776   -1.1117    0.8609 O.2     1  LIG11      -0.2456
      6 O          -1.2146    2.5633   -5.2301 O.3     1  LIG11      -0.5067
      7 O          -5.0409    2.6527    0.1398 O.2     1  LIG11      -0.2705
      8 O          -5.2873    6.6113    3.2878 O.co2   1  LIG11      -0.5452
      9 O          -3.4216    6.0236    4.4734 O.co2   1  LIG11      -0.5452
     10 N          -3.3218    4.1655   -0.3267 N.am    1  LIG11      -0.2815
     11 C           2.0134   -1.5298    0.1783 C.3     1  LIG11      -0.0160
     12 C           1.6361   -0.2140   -0.5991 C.3     1  LIG11      -0.0256
     13 C           0.6551   -2.4160    0.4610 C.3     1  LIG11       0.0318
     14 C           2.7113    0.9682   -0.6498 C.3     1  LIG11      -0.0243
     15 C           3.2665    1.1790    0.8032 C.3     1  LIG11      -0.0235
     16 C           2.7281   -1.1766    1.5065 C.3     1  LIG11      -0.0461
     17 C          -0.1880   -2.5331   -0.8339 C.2     1  LIG11      -0.0596
     18 C          -1.2693   -3.6366   -0.8349 C.3     1  LIG11      -0.0080
     19 C           3.8398   -0.1383    1.3609 C.3     1  LIG11      -0.0483
     20 C           1.0703   -3.8472    0.9534 C.3     1  LIG11      -0.0392
     21 C           0.9865   -0.5721   -1.9510 C.3     1  LIG11      -0.0306
     22 C          -0.6991   -5.0235   -0.4538 C.3     1  LIG11       0.0167
     23 C           4.1821    2.4271    1.0350 C.3     1  LIG11       0.0267
     24 C           1.9693    2.2868   -1.0247 C.3     1  LIG11      -0.0404
     25 C          -0.0435   -4.8963    0.9422 C.3     1  LIG11      -0.0408
     26 C           3.0179   -2.3688   -0.6770 C.3     1  LIG11      -0.0584
     27 C           0.0004   -1.7000   -1.8780 C.2     1  LIG11      -0.0835
     28 C          -0.2833   -1.8191    1.5949 C.3     1  LIG11       0.1025
     29 C           3.8153    0.7277   -1.7038 C.3     1  LIG11      -0.0590
     30 C          -2.2207   -3.6787   -2.0567 C.3     1  LIG11      -0.0405
     31 C          -1.8358   -6.0717   -0.3539 C.3     1  LIG11      -0.0412
     32 C           2.8252    3.5417   -0.9251 C.3     1  LIG11       0.0069
     33 C          -3.3465   -4.7335   -1.9357 C.3     1  LIG11      -0.0343
     34 C           3.5662    3.6787    0.3848 C.2     1  LIG11       0.1392
     35 C          -2.7439   -6.1072   -1.5842 C.3     1  LIG11      -0.0470
     36 C           5.6210    2.2811    0.5169 C.3     1  LIG11      -0.0528
     37 C           4.2746    2.7096    2.5596 C.3     1  LIG11      -0.0528
     38 C           0.3305   -5.6728   -1.4396 C.2     1  LIG11       0.0485
     39 C          -4.0777   -4.8411   -3.2880 C.3     1  LIG11      -0.0598
     40 C          -4.3855   -4.3076   -0.8780 C.3     1  LIG11      -0.0598
     41 C          -1.9638   -0.3055    0.8414 C.2     1  LIG11       0.3320
     42 C          -1.9626    0.9810    0.1151 C.2     1  LIG11       0.0231
     43 C          -2.8145    1.1700   -0.9035 C.2     1  LIG11      -0.0460
     44 C          -2.6393    2.2891   -1.8386 C.ar    1  LIG11      -0.0001
     45 C          -2.7972    3.6538   -1.5320 C.ar    1  LIG11       0.0411
     46 C          -2.1201    1.9250   -3.0979 C.ar    1  LIG11      -0.0113
     47 C          -2.3772    4.6178   -2.4664 C.ar    1  LIG11      -0.0364
     48 C          -1.7403    2.8980   -4.0168 C.ar    1  LIG11       0.1175
     49 C          -1.8615    4.2423   -3.7083 C.ar    1  LIG11      -0.0184
     50 C          -4.3530    3.6230    0.4162 C.2     1  LIG11       0.2411
     51 C          -4.7292    4.5104    1.5448 C.2     1  LIG11       0.0021
     52 C          -3.8291    4.9609    2.4311 C.2     1  LIG11      -0.0344
     53 C          -4.2354    5.9507    3.5116 C.2     1  LIG11       0.0647
     54 H          -1.1656    1.5931   -5.2808 H       1  LIG11       0.2921
     55 H          -3.1317    5.1377   -0.1158 H       1  LIG11       0.1551
     56 H           0.8380    0.2428   -0.0168 H       1  LIG11       0.0315
     57 H           2.3722    1.3895    1.4146 H       1  LIG11       0.0315
     58 H           2.0166   -0.7681    2.2298 H       1  LIG11       0.0271
     59 H           3.1459   -2.0790    1.9688 H       1  LIG11       0.0271
     60 H          -1.9340   -3.3513   -0.0110 H       1  LIG11       0.0355
     61 H           4.6516   -0.5258    0.7389 H       1  LIG11       0.0269
     62 H           4.2694    0.0110    2.3557 H       1  LIG11       0.0269
     63 H           1.8712   -4.2624    0.3387 H       1  LIG11       0.0275
     64 H           1.4775   -3.7841    1.9701 H       1  LIG11       0.0275
     65 H           1.7351   -0.8551   -2.6962 H       1  LIG11       0.0310
     66 H           0.4622    0.3036   -2.3468 H       1  LIG11       0.0310
     67 H           1.5684    2.2259   -2.0429 H       1  LIG11       0.0275
     68 H           1.1052    2.4197   -0.3606 H       1  LIG11       0.0275
     69 H           0.3732   -5.8546    1.2772 H       1  LIG11       0.0275
     70 H          -0.7996   -4.6377    1.6937 H       1  LIG11       0.0275
     71 H           3.8072   -1.7689   -1.1200 H       1  LIG11       0.0235
     72 H           3.5385   -3.1180   -0.0702 H       1  LIG11       0.0235
     73 H           2.5284   -2.8961   -1.5017 H       1  LIG11       0.0235
     74 H          -0.5797   -1.8411   -2.7855 H       1  LIG11       0.0572
     75 H           0.2469   -1.8005    2.5526 H       1  LIG11       0.0706
     76 H          -1.1519   -2.4569    1.7849 H       1  LIG11       0.0706
     77 H           4.6040    0.0616   -1.3532 H       1  LIG11       0.0235
     78 H           3.4182    0.3213   -2.6365 H       1  LIG11       0.0235
     79 H           4.3196    1.6474   -2.0034 H       1  LIG11       0.0235
     80 H          -2.6813   -2.6901   -2.1904 H       1  LIG11       0.0276
     81 H          -1.6503   -3.8700   -2.9728 H       1  LIG11       0.0276
     82 H          -1.4299   -7.0794   -0.1940 H       1  LIG11       0.0274
     83 H          -2.4503   -5.8657    0.5316 H       1  LIG11       0.0274
     84 H           3.5578    3.5963   -1.7353 H       1  LIG11       0.0342
     85 H           2.1694    4.4149   -1.0322 H       1  LIG11       0.0342
     86 H          -2.1708   -6.4896   -2.4385 H       1  LIG11       0.0271
     87 H          -3.5464   -6.8357   -1.4104 H       1  LIG11       0.0271
     88 H           5.6842    2.2842   -0.5717 H       1  LIG11       0.0239
     89 H           6.2381    3.1262    0.8477 H       1  LIG11       0.0239
     90 H           6.0991    1.3698    0.8885 H       1  LIG11       0.0239
     91 H           3.2780    2.8230    3.0025 H       1  LIG11       0.0239
     92 H           4.7986    1.9139    3.0970 H       1  LIG11       0.0239
     93 H           4.8232    3.6357    2.7683 H       1  LIG11       0.0239
     94 H          -3.3931   -5.1435   -4.0882 H       1  LIG11       0.0235
     95 H          -4.8842   -5.5818   -3.2435 H       1  LIG11       0.0235
     96 H          -4.5211   -3.8806   -3.5749 H       1  LIG11       0.0235
     97 H          -3.9579   -4.2161    0.1241 H       1  LIG11       0.0235
     98 H          -4.8286   -3.3377   -1.1320 H       1  LIG11       0.0235
     99 H          -5.2017   -5.0368   -0.8155 H       1  LIG11       0.0235
    100 H          -1.1693    1.6797    0.3445 H       1  LIG11       0.0689
    101 H          -3.5791    0.4377   -1.1510 H       1  LIG11       0.0626
    102 H          -1.9836    0.8711   -3.3314 H       1  LIG11       0.0660
    103 H          -2.4813    5.6774   -2.2477 H       1  LIG11       0.0637
    104 H          -1.5614    4.9975   -4.4281 H       1  LIG11       0.0655
    105 H          -5.7769    4.7884    1.5988 H       1  LIG11       0.0670
    106 H          -2.7940    4.6350    2.4193 H       1  LIG11       0.0637
@<TRIPOS>BOND
     1     1    41    1
     2     1    28    1
     3     2    34    2
     4     3    38   ar
     5     4    38   ar
     6     5    41    2
     7     6    48    1
     8     7    50    2
     9     8    53   ar
    10     9    53   ar
    11    10    45    1
    12    10    50   am
    13    11    16    1
    14    11    12    1
    15    11    26    1
    16    11    13    1
    17    12    14    1
    18    13    20    1
    19    13    17    1
    20    13    28    1
    21    14    15    1
    22    14    24    1
    23    14    29    1
    24    15    19    1
    25    15    23    1
    26    16    19    1
    27    17    18    1
    28    17    27    2
    29    18    30    1
    30    18    22    1
    31    20    25    1
    32    21    27    1
    33    21    12    1
    34    22    31    1
    35    22    25    1
    36    22    38    1
    37    23    34    1
    38    23    37    1
    39    23    36    1
    40    24    32    1
    41    30    33    1
    42    31    35    1
    43    32    34    1
    44    33    35    1
    45    33    40    1
    46    33    39    1
    47    41    42    1
    48    42    43    2
    49    43    44    1
    50    44    46   ar
    51    44    45   ar
    52    45    47   ar
    53    46    48   ar
    54    47    49   ar
    55    48    49   ar
    56    50    51    1
    57    51    52    2
    58    52    53    1
    59     6    54    1
    60    10    55    1
    61    12    56    1
    62    15    57    1
    63    16    58    1
    64    16    59    1
    65    18    60    1
    66    19    61    1
    67    19    62    1
    68    20    63    1
    69    20    64    1
    70    21    65    1
    71    21    66    1
    72    24    67    1
    73    24    68    1
    74    25    69    1
    75    25    70    1
    76    26    71    1
    77    26    72    1
    78    26    73    1
    79    27    74    1
    80    28    75    1
    81    28    76    1
    82    29    77    1
    83    29    78    1
    84    29    79    1
    85    30    80    1
    86    30    81    1
    87    31    82    1
    88    31    83    1
    89    32    84    1
    90    32    85    1
    91    35    86    1
    92    35    87    1
    93    36    88    1
    94    36    89    1
    95    36    90    1
    96    37    91    1
    97    37    92    1
    98    37    93    1
    99    39    94    1
   100    39    95    1
   101    39    96    1
   102    40    97    1
   103    40    98    1
   104    40    99    1
   105    42   100    1
   106    43   101    1
   107    46   102    1
   108    47   103    1
   109    49   104    1
   110    51   105    1
   111    52   106    1
@<TRIPOS>MOLECULE
16219006
 85 88 0 0 0
SMALL
GASTEIGER

@<TRIPOS>ATOM
      1 O           4.2042   -0.9680    2.2467 O.2     1  PRO11      -0.2738
      2 O           3.0868    1.0637   -1.3070 O.2     5  ASP55      -0.2735
      3 O           1.9393   -1.9514   -1.8012 O.2     2  VAL22      -0.2738
      4 O          -0.5542    2.9015    1.2439 O.2     4  TRP44      -0.2738
      5 O          -0.7058   -1.2577    1.7843 O.2     3  LEU33      -0.2738
      6 OD1         3.2524    5.0530   -0.8202 O.co2   5  ASP55      -0.5497
      7 OD2         3.7040    4.4491   -2.9704 O.co2   5  ASP55      -0.5497
      8 N           3.4494    1.8623    0.7798 N.am    1  PRO11      -0.2884
      9 N           4.1362   -1.0964   -0.0398 N.am    2  VAL22      -0.3022
     10 N           0.4398    2.0215   -0.6291 N.am    5  ASP55      -0.3021
     11 N           1.1863   -2.7866    0.1849 N.am    3  LEU33      -0.3025
     12 N          -1.1267   -0.3148   -0.2699 N.am    4  TRP44      -0.3022
     13 NE1        -2.0201    1.6552   -4.1577 N.ar    4  TRP44      -0.3604
     14 CA          4.6663    1.0738    0.9659 C.3     1  PRO11       0.1023
     15 CB          5.3264    1.6819    2.2065 C.3     1  PRO11      -0.0243
     16 CG          4.1581    2.2880    2.9758 C.3     1  PRO11      -0.0350
     17 CD          3.2555    2.8046    1.8682 C.3     1  PRO11       0.0156
     18 C           4.3255   -0.4224    1.1515 C.2     1  PRO11       0.2342
     19 C           2.8142    1.9086   -0.4412 C.2     5  ASP55       0.2369
     20 CA          3.6100   -2.4533   -0.0869 C.3     2  VAL22       0.1017
     21 CA          1.6300    2.8857   -0.6287 C.3     5  ASP55       0.1047
     22 CB          4.5402   -3.4069   -0.8692 C.3     2  VAL22      -0.0197
     23 CA         -0.2054   -2.5805   -0.1863 C.3     3  LEU33       0.0996
     24 C           2.1856   -2.3706   -0.6719 C.2     2  VAL22       0.2342
     25 CB          1.7527    3.6132   -1.9571 C.3     5  ASP55       0.0138
     26 CA         -1.6103    0.9659    0.2567 C.3     4  TRP44       0.1034
     27 CB         -1.0759   -3.7844    0.1910 C.3     3  LEU33      -0.0236
     28 CG         -0.7271   -5.0828   -0.5665 C.3     3  LEU33      -0.0446
     29 C          -0.4989    2.0300    0.3766 C.2     4  TRP44       0.2343
     30 CB         -2.8067    1.4940   -0.5526 C.3     4  TRP44       0.0013
     31 C          -0.6995   -1.3278    0.5570 C.2     3  LEU33       0.2340
     32 CG1         4.7962   -3.0001   -2.3233 C.3     2  VAL22      -0.0605
     33 CG2         4.0256   -4.8493   -0.8142 C.3     2  VAL22      -0.0605
     34 CG         -2.5173    1.8268   -1.9895 C.ar    4  TRP44      -0.0201
     35 CG          3.0234    4.4531   -1.9082 C.2     5  ASP55       0.0440
     36 CD1        -1.6720   -6.2036   -0.1269 C.3     3  LEU33      -0.0626
     37 CD2        -0.7970   -4.9198   -2.0868 C.3     3  LEU33      -0.0626
     38 CD2        -2.4202    3.1433   -2.5502 C.ar    4  TRP44       0.0029
     39 CD1        -2.3092    0.9373   -3.0279 C.ar    4  TRP44       0.0060
     40 CE2        -2.1143    3.0018   -3.9032 C.ar    4  TRP44       0.0467
     41 CE3        -2.5524    4.4460   -2.0269 C.ar    4  TRP44      -0.0523
     42 CZ2        -1.9336    4.0942   -4.7598 C.ar    4  TRP44      -0.0378
     43 CZ3        -2.3856    5.5499   -2.8710 C.ar    4  TRP44      -0.0611
     44 CH2        -2.0796    5.3736   -4.2178 C.ar    4  TRP44      -0.0598
     45 H           3.9173   -0.4921   -0.8425 H       2  VAL22       0.1495
     46 H           0.4679    1.2596   -1.2910 H       5  ASP55       0.1495
     47 H           1.3917   -2.7501    1.1803 H       3  LEU33       0.1495
     48 H          -0.8303   -0.3363   -1.2378 H       4  TRP44       0.1495
     49 HE1        -1.7757    1.2630   -5.0563 H       4  TRP44       0.1653
     50 HA          5.3233    1.1769    0.0937 H       1  PRO11       0.0597
     51 HB1         6.0103    2.4836    1.9011 H       1  PRO11       0.0288
     52 HB2         5.8949    0.9647    2.8057 H       1  PRO11       0.0288
     53 HG1         4.4668    3.0757    3.6684 H       1  PRO11       0.0281
     54 HG2         3.6430    1.5087    3.5496 H       1  PRO11       0.0281
     55 HD1         2.2067    2.8414    2.1730 H       1  PRO11       0.0465
     56 HD2         3.5744    3.7956    1.5315 H       1  PRO11       0.0465
     57 HA          3.5383   -2.8350    0.9389 H       2  VAL22       0.0597
     58 HA          1.5471    3.5951    0.1956 H       5  ASP55       0.0598
     59 HB          5.5154   -3.3913   -0.3630 H       2  VAL22       0.0318
     60 HA         -0.2894   -2.3975   -1.2617 H       3  LEU33       0.0594
     61 HB1         0.8938    4.2731   -2.1223 H       5  ASP55       0.0348
     62 HB2         1.7924    2.9102   -2.7986 H       5  ASP55       0.0348
     63 HA         -1.9573    0.7821    1.2820 H       4  TRP44       0.0598
     64 HB1        -2.1286   -3.5299    0.0080 H       3  LEU33       0.0290
     65 HB2        -0.9928   -3.9730    1.2701 H       3  LEU33       0.0290
     66 HG          0.2946   -5.3844   -0.3032 H       3  LEU33       0.0296
     67 HB1        -3.2104    2.3819   -0.0503 H       4  TRP44       0.0337
     68 HB2        -3.6090    0.7442   -0.5338 H       4  TRP44       0.0337
     69 HG11        3.8969   -3.0923   -2.9393 H       2  VAL22       0.0233
     70 HG12        5.5601   -3.6483   -2.7678 H       2  VAL22       0.0233
     71 HG13        5.1608   -1.9710   -2.3941 H       2  VAL22       0.0233
     72 HG21        3.0743   -4.9595   -1.3455 H       2  VAL22       0.0233
     73 HG22        3.8769   -5.1718    0.2215 H       2  VAL22       0.0233
     74 HG23        4.7459   -5.5342   -1.2748 H       2  VAL22       0.0233
     75 HD11       -2.7113   -5.9669   -0.3783 H       3  LEU33       0.0232
     76 HD12       -1.6112   -6.3627    0.9546 H       3  LEU33       0.0232
     77 HD13       -1.4115   -7.1469   -0.6182 H       3  LEU33       0.0232
     78 HD21       -1.7626   -4.5072   -2.3982 H       3  LEU33       0.0232
     79 HD22       -0.6628   -5.8841   -2.5891 H       3  LEU33       0.0232
     80 HD23       -0.0064   -4.2573   -2.4540 H       3  LEU33       0.0232
     81 HD1        -2.3163   -0.1433   -3.0596 H       4  TRP44       0.0810
     82 HE3        -2.7636    4.6016   -0.9735 H       4  TRP44       0.0624
     83 HZ2        -1.6706    3.9608   -5.8034 H       4  TRP44       0.0638
     84 HZ3        -2.4732    6.5539   -2.4631 H       4  TRP44       0.0618
     85 HH2        -1.9296    6.2438   -4.8521 H       4  TRP44       0.0618
@<TRIPOS>BOND
     1     1    18    2
     2     2    19    2
     3     3    24    2
     4     4    29    2
     5     5    31    2
     6     6    35   ar
     7     7    35   ar
     8     8    14    1
     9     8    17    1
    10     8    19   am
    11     9    18   am
    12     9    20    1
    13    10    21    1
    14    10    29   am
    15    11    23    1
    16    11    24   am
    17    12    26    1
    18    12    31   am
    19    13    39   ar
    20    13    40   ar
    21    14    15    1
    22    14    18    1
    23    15    16    1
    24    16    17    1
    25    19    21    1
    26    20    22    1
    27    20    24    1
    28    21    25    1
    29    22    32    1
    30    22    33    1
    31    23    27    1
    32    23    31    1
    33    25    35    1
    34    26    29    1
    35    26    30    1
    36    27    28    1
    37    28    36    1
    38    28    37    1
    39    30    34    1
    40    34    38   ar
    41    34    39   ar
    42    38    40   ar
    43    38    41   ar
    44    40    42   ar
    45    41    43   ar
    46    42    44   ar
    47    43    44   ar
    48     9    45    1
    49    10    46    1
    50    11    47    1
    51    12    48    1
    52    13    49    1
    53    14    50    1
    54    15    51    1
    55    15    52    1
    56    16    53    1
    57    16    54    1
    58    17    55    1
    59    17    56    1
    60    20    57    1
    61    21    58    1
    62    22    59    1
    63    23    60    1
    64    25    61    1
    65    25    62    1
    66    26    63    1
    67    27    64    1
    68    27    65    1
    69    28    66    1
    70    30    67    1
    71    30    68    1
    72    32    69    1
    73    32    70    1
    74    32    71    1
    75    33    72    1
    76    33    73    1
    77    33    74    1
    78    36    75    1
    79    36    76    1
    80    36    77    1
    81    37    78    1
    82    37    79    1
    83    37    80    1
    84    39    81    1
    85    41    82    1
    86    42    83    1
    87    43    84    1
    88    44    85    1
