@<TRIPOS>MOLECULE
123882
 117 122 0 0 0
SMALL
GASTEIGER

@<TRIPOS>ATOM
      1 S          -0.3115   -7.0737   -0.2055 S.2     3  UNK33      -0.0993
      2 O           6.1887    3.1281    1.0340 O.2     1  UNK11      -0.2755
      3 O          -2.2964    0.0966   -3.6674 O.2     4  LEU44      -0.2738
      4 O           3.0234   -0.8330    1.9376 O.2     1  UNK11      -0.2737
      5 O           0.5953    0.1829   -0.6934 O.2     5  TRP55      -0.2738
      6 O           2.2052    2.6056    1.4803 O.2     6  ASP66      -0.2738
      7 O          -1.6203   -4.3214   -2.0999 O.2     3  UNK33      -0.2734
      8 O           2.4539   -2.7512   -1.9064 O.2     2  ASP22      -0.2737
      9 OD1        -0.2735    4.4923   -2.2900 O.co2   6  ASP66      -0.5497
     10 OD2         1.7144    5.1606   -3.2069 O.co2   6  ASP66      -0.5497
     11 OD1         6.6836   -2.3724   -0.1579 O.co2   2  ASP22      -0.5497
     12 OD2         6.6754   -4.4061    0.8993 O.co2   2  ASP22      -0.5497
     13 N           7.5357    2.3545   -0.6554 N.am    1  UNK11      -0.2984
     14 N          10.2917    2.4459   -1.6254 N.pl3   1  UNK11      -0.3269
     15 N           3.4756    1.5373   -0.1207 N.am    1  UNK11      -0.3020
     16 N          -1.7400   -0.5428   -1.5387 N.am    5  TRP55      -0.3022
     17 N          -0.1985   -2.5627   -2.3017 N.am    4  LEU44      -0.3022
     18 N           0.1091    2.4207   -0.6243 N.am    6  ASP66      -0.3021
     19 N           4.1679   -1.4578    0.0587 N.am    2  ASP22      -0.3021
     20 N           1.4524   -3.6722   -0.0866 N.am    3  UNK33      -0.2984
     21 NE1        -6.0869    0.6406   -0.4674 N.ar    5  TRP55      -0.3604
     22 C           8.1037    1.2323   -1.4213 C.3     1  UNK11       0.0304
     23 C           8.2269    3.6371   -0.7975 C.3     1  UNK11       0.0304
     24 C           9.2723    1.6432   -2.3331 C.3     1  UNK11       0.0280
     25 C           9.7539    3.4734   -0.6904 C.3     1  UNK11       0.0280
     26 C           6.4958    2.2198    0.2633 C.2     1  UNK11       0.2179
     27 C           5.8096    0.8670    0.2912 C.3     1  UNK11       0.0510
     28 C           4.3789    0.8895    0.8323 C.3     1  UNK11       0.1076
     29 CA         -0.9145   -1.9053   -3.4112 C.3     4  LEU44       0.0997
     30 CB          0.1305   -1.5185   -4.4758 C.3     4  LEU44      -0.0236
     31 CA         -1.7348    0.8026   -0.9596 C.3     5  TRP55       0.1034
     32 C          11.4534    1.8223   -1.1502 C.ar    1  UNK11       0.0298
     33 CG         -0.3832   -0.9348   -5.8066 C.3     4  LEU44      -0.0446
     34 CB         -2.4999    0.8665    0.3667 C.3     5  TRP55       0.0013
     35 C          -1.7116   -0.6786   -2.9124 C.2     4  LEU44       0.2340
     36 CA          1.5073    2.7884   -0.8614 C.3     6  ASP66       0.1045
     37 C           3.8208   -0.5478    1.0434 C.2     1  UNK11       0.2344
     38 CG         -3.9630    0.5432    0.2087 C.ar    5  TRP55      -0.0201
     39 C          -0.2356    1.0954   -0.7455 C.2     5  TRP55       0.2343
     40 C           2.4057    2.3088    0.3043 C.2     6  ASP66       0.2343
     41 CA          3.7805   -2.8570    0.1471 C.3     2  ASP22       0.1045
     42 CD2        -1.4396   -1.8124   -6.4745 C.3     4  LEU44      -0.0626
     43 CD1         0.7979   -0.7271   -6.7620 C.3     4  LEU44      -0.0626
     44 C           0.5016   -4.4757   -0.8558 C.3     3  UNK33       0.1311
     45 C          11.5513    0.4453   -0.9081 C.ar    1  UNK11      -0.0407
     46 C          12.5929    2.6018   -0.8852 C.ar    1  UNK11      -0.0407
     47 CD2        -4.6626   -0.6072    0.7049 C.ar    5  TRP55       0.0029
     48 C          -0.5733   -3.7681   -1.7557 C.2     3  UNK33       0.2390
     49 CB          1.6893    4.2932   -1.0159 C.3     6  ASP66       0.0138
     50 CD1        -4.8877    1.2966   -0.4901 C.ar    5  TRP55       0.0060
     51 CE2        -5.9850   -0.5181    0.2653 C.ar    5  TRP55       0.0467
     52 C           2.5141   -3.0565   -0.7136 C.2     2  ASP22       0.2345
     53 CB          4.8392   -3.7930   -0.4370 C.3     2  ASP22       0.0138
     54 C          12.7277   -0.1267   -0.4092 C.ar    1  UNK11      -0.0600
     55 C          13.7738    2.0362   -0.3938 C.ar    1  UNK11      -0.0600
     56 C          -0.2112   -5.3891    0.1211 C.ar    3  UNK33       0.0189
     57 CE3        -4.2904   -1.7314    1.4721 C.ar    5  TRP55      -0.0523
     58 C          13.8394    0.6687   -0.1520 C.ar    1  UNK11      -0.0616
     59 CZ2        -6.9503   -1.4925    0.5522 C.ar    5  TRP55      -0.0378
     60 CG          0.9793    4.6908   -2.2974 C.2     6  ASP66       0.0440
     61 CZ3        -5.2431   -2.7133    1.7716 C.ar    5  TRP55      -0.0611
     62 C          -0.8384   -5.0738    1.3146 C.ar    3  UNK33      -0.0493
     63 CH2        -6.5538   -2.5935    1.3166 C.ar    5  TRP55      -0.0598
     64 CG          6.1971   -3.4982    0.1699 C.2     2  ASP22       0.0440
     65 C          -1.3993   -6.2169    1.9542 C.ar    3  UNK33      -0.0544
     66 C          -1.1972   -7.3665    1.2254 C.ar    3  UNK33      -0.0240
     67 H           3.3193    1.0348   -0.9876 H       1  UNK11       0.1495
     68 H          -1.1057   -1.1860   -1.0718 H       5  TRP55       0.1495
     69 H           0.7286   -2.1989   -2.0653 H       4  LEU44       0.1495
     70 H          -0.5282    3.0829   -1.0840 H       6  ASP66       0.1495
     71 H           5.0998   -1.3513   -0.3455 H       2  ASP22       0.1495
     72 H           1.6143   -3.9439    0.8749 H       3  UNK33       0.1498
     73 HE1        -6.9234    0.9503   -0.9395 H       5  TRP55       0.1653
     74 H           8.4239    0.4737   -0.6992 H       1  UNK11       0.0480
     75 H           7.3173    0.7978   -2.0461 H       1  UNK11       0.0480
     76 H           7.9581    4.0353   -1.7838 H       1  UNK11       0.0480
     77 H           7.8796    4.3613   -0.0542 H       1  UNK11       0.0480
     78 H           8.8770    2.2701   -3.1437 H       1  UNK11       0.0479
     79 H           9.7025    0.7694   -2.8365 H       1  UNK11       0.0479
     80 H           9.9885    3.2012    0.3477 H       1  UNK11       0.0479
     81 H          10.2315    4.4367   -0.9035 H       1  UNK11       0.0479
     82 H           5.7810    0.4777   -0.7289 H       1  UNK11       0.0381
     83 H           6.4341    0.2059    0.9039 H       1  UNK11       0.0381
     84 H           4.3453    1.4046    1.7990 H       1  UNK11       0.0599
     85 HA         -1.6406   -2.6138   -3.8200 H       4  LEU44       0.0594
     86 HB1         0.8311   -0.7950   -4.0345 H       4  LEU44       0.0290
     87 HB2         0.7302   -2.4123   -4.7007 H       4  LEU44       0.0290
     88 HA         -2.1341    1.5227   -1.6837 H       5  TRP55       0.0598
     89 HG         -0.8199    0.0530   -5.6237 H       4  LEU44       0.0296
     90 HB1        -2.0464    0.1815    1.0942 H       5  TRP55       0.0337
     91 HB2        -2.4099    1.8706    0.8009 H       5  TRP55       0.0337
     92 HA          1.8153    2.2841   -1.7875 H       6  ASP66       0.0598
     93 HA          3.5851   -3.1172    1.1933 H       2  ASP22       0.0598
     94 HD21       -1.0725   -2.8333   -6.6221 H       4  LEU44       0.0232
     95 HD22       -2.3539   -1.8590   -5.8754 H       4  LEU44       0.0232
     96 HD23       -1.7166   -1.4074   -7.4540 H       4  LEU44       0.0232
     97 HD11        1.2750   -1.6794   -7.0180 H       4  LEU44       0.0232
     98 HD12        0.4677   -0.2536   -7.6926 H       4  LEU44       0.0232
     99 HD13        1.5560   -0.0788   -6.3096 H       4  LEU44       0.0232
    100 H           1.1054   -5.0726   -1.5538 H       3  UNK33       0.0651
    101 H          10.7030   -0.2153   -1.0644 H       1  UNK11       0.0636
    102 H          12.5669    3.6704   -1.0818 H       1  UNK11       0.0636
    103 HB1         1.2577    4.8442   -0.1726 H       6  ASP66       0.0348
    104 HB2         2.7536    4.5518   -1.0722 H       6  ASP66       0.0348
    105 HD1        -4.7751    2.2227   -1.0390 H       5  TRP55       0.0810
    106 HB1         4.5541   -4.8382   -0.2659 H       2  ASP22       0.0348
    107 HB2         4.9283   -3.6673   -1.5242 H       2  ASP22       0.0348
    108 H          12.7596   -1.1954   -0.2126 H       1  UNK11       0.0618
    109 H          14.6356    2.6677   -0.2013 H       1  UNK11       0.0618
    110 HE3        -3.2680   -1.8414    1.8198 H       5  TRP55       0.0624
    111 H          14.7486    0.2229    0.2392 H       1  UNK11       0.0618
    112 HZ2        -7.9672   -1.4061    0.1857 H       5  TRP55       0.0638
    113 HZ3        -4.9484   -3.5815    2.3549 H       5  TRP55       0.0618
    114 H          -0.8919   -4.0650    1.7093 H       3  UNK33       0.0626
    115 HH2        -7.2758   -3.3719    1.5494 H       5  TRP55       0.0618
    116 H          -1.9313   -6.1935    2.8966 H       3  UNK33       0.0623
    117 H          -1.5235   -8.3689    1.4628 H       3  UNK33       0.0693
@<TRIPOS>BOND
     1     1    56   ar
     2     1    66   ar
     3     2    26    2
     4     3    35    2
     5     4    37    2
     6     5    39    2
     7     6    40    2
     8     7    48    2
     9     8    52    2
    10     9    60   ar
    11    10    60   ar
    12    11    64   ar
    13    12    64   ar
    14    13    22    1
    15    13    23    1
    16    14    24    1
    17    14    25    1
    18    14    32    1
    19    15    28    1
    20    15    40   am
    21    16    35   am
    22    16    31    1
    23    17    48   am
    24    17    29    1
    25    18    39   am
    26    18    36    1
    27    19    37   am
    28    19    41    1
    29    20    52   am
    30    20    44    1
    31    21    50   ar
    32    21    51   ar
    33    22    24    1
    34    23    25    1
    35    26    27    1
    36    26    13   am
    37    28    37    1
    38    28    27    1
    39    29    35    1
    40    29    30    1
    41    30    33    1
    42    31    39    1
    43    31    34    1
    44    32    45   ar
    45    32    46   ar
    46    33    43    1
    47    33    42    1
    48    34    38    1
    49    36    40    1
    50    36    49    1
    51    38    47   ar
    52    38    50   ar
    53    41    52    1
    54    41    53    1
    55    44    48    1
    56    44    56    1
    57    45    54   ar
    58    46    55   ar
    59    47    57   ar
    60    47    51   ar
    61    49    60    1
    62    51    59   ar
    63    53    64    1
    64    54    58   ar
    65    55    58   ar
    66    56    62   ar
    67    57    61   ar
    68    59    63   ar
    69    61    63   ar
    70    62    65   ar
    71    65    66   ar
    72    15    67    1
    73    16    68    1
    74    17    69    1
    75    18    70    1
    76    19    71    1
    77    20    72    1
    78    21    73    1
    79    22    74    1
    80    22    75    1
    81    23    76    1
    82    23    77    1
    83    24    78    1
    84    24    79    1
    85    25    80    1
    86    25    81    1
    87    27    82    1
    88    27    83    1
    89    28    84    1
    90    29    85    1
    91    30    86    1
    92    30    87    1
    93    31    88    1
    94    33    89    1
    95    34    90    1
    96    34    91    1
    97    36    92    1
    98    41    93    1
    99    42    94    1
   100    42    95    1
   101    42    96    1
   102    43    97    1
   103    43    98    1
   104    43    99    1
   105    44   100    1
   106    45   101    1
   107    46   102    1
   108    49   103    1
   109    49   104    1
   110    50   105    1
   111    53   106    1
   112    53   107    1
   113    54   108    1
   114    55   109    1
   115    57   110    1
   116    58   111    1
   117    59   112    1
   118    61   113    1
   119    62   114    1
   120    63   115    1
   121    65   116    1
   122    66   117    1
@<TRIPOS>MOLECULE
16219006
 85 88 0 0 0
SMALL
GASTEIGER

@<TRIPOS>ATOM
      1 O           3.7044   -0.8540    2.1872 O.2     1  PRO11      -0.2738
      2 O           3.2756    1.2727   -1.4666 O.2     5  ASP55      -0.2735
      3 O           2.1782   -2.0004   -1.7859 O.2     2  VAL22      -0.2738
      4 O          -0.3046    2.8505    1.4262 O.2     4  TRP44      -0.2738
      5 O          -0.2761   -1.1518    1.7814 O.2     3  LEU33      -0.2738
      6 OD1         0.5093    5.1082   -3.4488 O.co2   5  ASP55      -0.5497
      7 OD2        -0.5565    4.4767   -1.5434 O.co2   5  ASP55      -0.5497
      8 N           3.4661    1.9111    0.6899 N.am    1  PRO11      -0.2884
      9 N           4.2874   -1.2237    0.0036 N.am    2  VAL22      -0.3022
     10 N           0.5106    1.9406   -0.5257 N.am    5  ASP55      -0.3021
     11 N           1.2833   -2.7898    0.1719 N.am    3  LEU33      -0.3025
     12 N          -1.0945   -0.2491   -0.1654 N.am    4  TRP44      -0.3022
     13 NE1        -5.6941   -0.3986   -1.2697 N.ar    4  TRP44      -0.3604
     14 CA          4.6129    1.0367    0.9143 C.3     1  PRO11       0.1023
     15 CB          5.2740    1.6047    2.1694 C.3     1  PRO11      -0.0243
     16 CG          4.1186    2.2380    2.9372 C.3     1  PRO11      -0.0350
     17 CD          3.1924    2.7510    1.8435 C.3     1  PRO11       0.0156
     18 C           4.1621   -0.4278    1.1285 C.2     1  PRO11       0.2342
     19 C           2.8724    2.0036   -0.5515 C.2     5  ASP55       0.2369
     20 CA          3.7238   -2.5736   -0.0067 C.3     2  VAL22       0.1017
     21 CA          1.6037    2.8850   -0.7026 C.3     5  ASP55       0.1047
     22 CB          4.5819   -3.5544   -0.8375 C.3     2  VAL22      -0.0197
     23 CA         -0.0803   -2.4747   -0.2342 C.3     3  LEU33       0.0996
     24 C           2.3334   -2.4199   -0.6407 C.2     2  VAL22       0.2342
     25 CB          1.5657    3.5297   -2.0801 C.3     5  ASP55       0.0138
     26 CA         -1.5278    1.0066    0.4583 C.3     4  TRP44       0.1034
     27 CB         -1.0429   -3.6254    0.0728 C.3     3  LEU33      -0.0236
     28 CG         -0.7094   -4.9351   -0.6710 C.3     3  LEU33      -0.0446
     29 C          -0.3715    2.0148    0.5257 C.2     4  TRP44       0.2343
     30 CB         -2.7430    1.5931   -0.2689 C.3     4  TRP44       0.0013
     31 C          -0.4839   -1.2334    0.5707 C.2     3  LEU33       0.2340
     32 CG1         3.9314   -4.9432   -0.9133 C.3     2  VAL22      -0.0605
     33 CG2         5.9888   -3.6983   -0.2475 C.3     2  VAL22      -0.0605
     34 CG         -3.9198    0.6423   -0.3921 C.ar    4  TRP44      -0.0201
     35 CG          0.3931    4.4625   -2.3673 C.2     5  ASP55       0.0440
     36 CD1        -1.6902   -6.0328   -0.2548 C.3     3  LEU33      -0.0626
     37 CD2        -0.7340   -4.7698   -2.1917 C.3     3  LEU33      -0.0626
     38 CD2        -4.3998   -0.3428    0.5449 C.ar    4  TRP44       0.0029
     39 CD1        -4.7563    0.5704   -1.4929 C.ar    4  TRP44       0.0060
     40 CE2        -5.4898   -0.9880   -0.0454 C.ar    4  TRP44       0.0467
     41 CE3        -4.0137   -0.7708    1.8347 C.ar    4  TRP44      -0.0523
     42 CZ2        -6.1896   -2.0319    0.5769 C.ar    4  TRP44      -0.0378
     43 CZ3        -4.6872   -1.8230    2.4643 C.ar    4  TRP44      -0.0611
     44 CH2        -5.7613   -2.4441    1.8416 C.ar    4  TRP44      -0.0598
     45 H           4.2285   -0.7121   -0.8806 H       2  VAL22       0.1495
     46 H           0.4295    1.1905   -1.1956 H       5  ASP55       0.1495
     47 H           1.4536   -2.7319    1.1742 H       3  LEU33       0.1495
     48 H          -1.2017   -0.3439   -1.1675 H       4  TRP44       0.1495
     49 HE1        -6.4309   -0.6525   -1.9116 H       4  TRP44       0.1653
     50 HA          5.3016    1.0791    0.0629 H       1  PRO11       0.0597
     51 HB1         5.9905    2.3847    1.8848 H       1  PRO11       0.0288
     52 HB2         5.8066    0.8551    2.7624 H       1  PRO11       0.0288
     53 HG1         4.4490    3.0330    3.6116 H       1  PRO11       0.0281
     54 HG2         3.6059    1.4791    3.5389 H       1  PRO11       0.0281
     55 HD1         2.1439    2.6845    2.1362 H       1  PRO11       0.0465
     56 HD2         3.4296    3.7861    1.5751 H       1  PRO11       0.0465
     57 HA          3.6306   -2.9478    1.0194 H       2  VAL22       0.0597
     58 HA          1.5706    3.6607    0.0673 H       5  ASP55       0.0598
     59 HB          4.6832   -3.1730   -1.8622 H       2  VAL22       0.0318
     60 HA         -0.1142   -2.2282   -1.2994 H       3  LEU33       0.0594
     61 HB1         1.5684    2.7636   -2.8649 H       5  ASP55       0.0348
     62 HB2         2.4844    4.1181   -2.2137 H       5  ASP55       0.0348
     63 HA         -1.7658    0.8054    1.5034 H       4  TRP44       0.0598
     64 HB1        -2.0663   -3.3121   -0.1744 H       3  LEU33       0.0290
     65 HB2        -1.0402   -3.8230    1.1537 H       3  LEU33       0.0290
     66 HG          0.2963   -5.2635   -0.3803 H       3  LEU33       0.0296
     67 HB1        -2.4397    1.8948   -1.2828 H       4  TRP44       0.0337
     68 HB2        -3.0797    2.5072    0.2329 H       4  TRP44       0.0337
     69 HG11        3.7929   -5.3716    0.0856 H       2  VAL22       0.0233
     70 HG12        4.5560   -5.6327   -1.4919 H       2  VAL22       0.0233
     71 HG13        2.9541   -4.9044   -1.4042 H       2  VAL22       0.0233
     72 HG21        5.9508   -4.0777    0.7799 H       2  VAL22       0.0233
     73 HG22        6.5173   -2.7401   -0.2378 H       2  VAL22       0.0233
     74 HG23        6.5876   -4.3974   -0.8414 H       2  VAL22       0.0233
     75 HD11       -2.7177   -5.7738   -0.5317 H       3  LEU33       0.0232
     76 HD12       -1.6591   -6.1926    0.8280 H       3  LEU33       0.0232
     77 HD13       -1.4375   -6.9824   -0.7388 H       3  LEU33       0.0232
     78 HD21       -1.7009   -4.3857   -2.5334 H       3  LEU33       0.0232
     79 HD22       -0.5552   -5.7292   -2.6890 H       3  LEU33       0.0232
     80 HD23        0.0465   -4.0837   -2.5335 H       3  LEU33       0.0232
     81 HD1        -4.7587    1.1366   -2.4157 H       4  TRP44       0.0810
     82 HE3        -3.1887   -0.3085    2.3644 H       4  TRP44       0.0624
     83 HZ2        -7.0350   -2.5113    0.0970 H       4  TRP44       0.0638
     84 HZ3        -4.3591   -2.1475    3.4480 H       4  TRP44       0.0618
     85 HH2        -6.2766   -3.2558    2.3485 H       4  TRP44       0.0618
@<TRIPOS>BOND
     1     1    18    2
     2     2    19    2
     3     3    24    2
     4     4    29    2
     5     5    31    2
     6     6    35   ar
     7     7    35   ar
     8     8    14    1
     9     8    17    1
    10     8    19   am
    11     9    18   am
    12     9    20    1
    13    10    21    1
    14    10    29   am
    15    11    23    1
    16    11    24   am
    17    12    26    1
    18    12    31   am
    19    13    39   ar
    20    13    40   ar
    21    14    15    1
    22    14    18    1
    23    15    16    1
    24    16    17    1
    25    19    21    1
    26    20    22    1
    27    20    24    1
    28    21    25    1
    29    22    32    1
    30    22    33    1
    31    23    27    1
    32    23    31    1
    33    25    35    1
    34    26    29    1
    35    26    30    1
    36    27    28    1
    37    28    36    1
    38    28    37    1
    39    30    34    1
    40    34    38   ar
    41    34    39   ar
    42    38    40   ar
    43    38    41   ar
    44    40    42   ar
    45    41    43   ar
    46    42    44   ar
    47    43    44   ar
    48     9    45    1
    49    10    46    1
    50    11    47    1
    51    12    48    1
    52    13    49    1
    53    14    50    1
    54    15    51    1
    55    15    52    1
    56    16    53    1
    57    16    54    1
    58    17    55    1
    59    17    56    1
    60    20    57    1
    61    21    58    1
    62    22    59    1
    63    23    60    1
    64    25    61    1
    65    25    62    1
    66    26    63    1
    67    27    64    1
    68    27    65    1
    69    28    66    1
    70    30    67    1
    71    30    68    1
    72    32    69    1
    73    32    70    1
    74    32    71    1
    75    33    72    1
    76    33    73    1
    77    33    74    1
    78    36    75    1
    79    36    76    1
    80    36    77    1
    81    37    78    1
    82    37    79    1
    83    37    80    1
    84    39    81    1
    85    41    82    1
    86    42    83    1
    87    43    84    1
    88    44    85    1
