@<TRIPOS>MOLECULE
*****
 48 50 0 0 0
SMALL
GASTEIGER

@<TRIPOS>ATOM
      1 C          -2.0268   -1.3673   -3.7295 C.ar    1  LIG11      -0.0615
      2 C          -3.3480   -1.6787   -4.0139 C.ar    1  LIG11      -0.0617
      3 C          -4.3661   -0.8970   -3.4780 C.ar    1  LIG11      -0.0615
      4 C          -4.0650    0.1777   -2.6331 C.ar    1  LIG11      -0.0576
      5 C          -2.7376    0.4893   -2.2853 C.ar    1  LIG11      -0.0332
      6 C          -1.7292   -0.2885   -2.8937 C.ar    1  LIG11      -0.0576
      7 C          -2.5491    4.2688   -1.6211 C.ar    1  LIG11      -0.0576
      8 C          -2.5133    5.4345   -2.3983 C.ar    1  LIG11      -0.0615
      9 C          -2.1586    5.3729   -3.7407 C.ar    1  LIG11      -0.0617
     10 C          -1.8156    4.1497   -4.2984 C.ar    1  LIG11      -0.0615
     11 C          -1.8517    2.9848   -3.5173 C.ar    1  LIG11      -0.0576
     12 N          -1.1863   -2.1183    0.1580 N.ar    1  LIG11      -0.2002
     13 C          -0.5606   -0.9384   -0.0031 C.ar    1  LIG11       0.3190
     14 N           0.6889   -0.7894   -0.4696 N.ar    1  LIG11      -0.2002
     15 C           1.3431   -1.9125   -0.8155 C.ar    1  LIG11       0.0453
     16 C           0.7754   -3.1668   -0.7118 C.ar    1  LIG11      -0.0193
     17 C          -0.5111   -3.2226   -0.2125 C.ar    1  LIG11       0.0453
     18 C          -1.2315   -4.5298   -0.0835 C.3     1  LIG11      -0.0221
     19 C           2.7372   -1.7547   -1.3404 C.3     1  LIG11      -0.0221
     20 O          -1.3145    0.1644    0.3084 O.3     1  LIG11      -0.4519
     21 C          -1.0701    1.3588   -0.4952 C.3     1  LIG11       0.1554
     22 C          -2.3796    1.6941   -1.3191 C.3     1  LIG11       0.0601
     23 C          -0.6197    2.4923    0.4692 C.2     1  LIG11       0.0833
     24 O          -1.1690    2.5332    1.6090 O.co2   1  LIG11      -0.5460
     25 O           0.2732    3.2695    0.0114 O.co2   1  LIG11      -0.5460
     26 C          -2.2510    3.0059   -2.1666 C.ar    1  LIG11      -0.0332
     27 C          -3.5571    1.8432   -0.2961 C.3     1  LIG11      -0.0477
     28 H          -1.2163   -1.9564   -4.1483 H       1  LIG11       0.0618
     29 H          -3.5838   -2.5190   -4.6580 H       1  LIG11       0.0618
     30 H          -5.4031   -1.1204   -3.7112 H       1  LIG11       0.0618
     31 H          -4.8952    0.7662   -2.2555 H       1  LIG11       0.0621
     32 H          -0.6787   -0.0620   -2.7313 H       1  LIG11       0.0621
     33 H          -2.7941    4.3771   -0.5659 H       1  LIG11       0.0621
     34 H          -2.7491    6.3901   -1.9394 H       1  LIG11       0.0618
     35 H          -2.1274    6.2763   -4.3408 H       1  LIG11       0.0618
     36 H          -1.5133    4.0870   -5.3392 H       1  LIG11       0.0618
     37 H          -1.5655    2.0600   -4.0053 H       1  LIG11       0.0621
     38 H           1.3126   -4.0585   -1.0065 H       1  LIG11       0.0653
     39 H          -0.5927   -5.3741   -0.3635 H       1  LIG11       0.0293
     40 H          -2.1102   -4.5381   -0.7366 H       1  LIG11       0.0293
     41 H          -1.5557   -4.6797    0.9509 H       1  LIG11       0.0293
     42 H           3.0179   -0.6981   -1.3923 H       1  LIG11       0.0293
     43 H           2.8121   -2.1761   -2.3480 H       1  LIG11       0.0293
     44 H           3.4468   -2.2660   -0.6829 H       1  LIG11       0.0293
     45 H          -0.2278    1.2302   -1.1848 H       1  LIG11       0.0810
     46 H          -3.7757    0.8970    0.2119 H       1  LIG11       0.0243
     47 H          -4.4815    2.1884   -0.7731 H       1  LIG11       0.0243
     48 H          -3.3500    2.5781    0.4867 H       1  LIG11       0.0243
@<TRIPOS>BOND
     1     1     2   ar
     2     2     3   ar
     3     3     4   ar
     4     4     5   ar
     5     5     6   ar
     6     5    22    1
     7     6     1   ar
     8     7     8   ar
     9     8     9   ar
    10     9    10   ar
    11    10    11   ar
    12    11    26   ar
    13    12    13   ar
    14    13    14   ar
    15    14    15   ar
    16    15    16   ar
    17    15    19    1
    18    16    17   ar
    19    17    12   ar
    20    17    18    1
    21    20    21    1
    22    20    13    1
    23    21    23    1
    24    21    22    1
    25    22    27    1
    26    22    26    1
    27    23    25   ar
    28    23    24   ar
    29    26     7   ar
    30     1    28    1
    31     2    29    1
    32     3    30    1
    33     4    31    1
    34     6    32    1
    35     7    33    1
    36     8    34    1
    37     9    35    1
    38    10    36    1
    39    11    37    1
    40    16    38    1
    41    18    39    1
    42    18    40    1
    43    18    41    1
    44    19    42    1
    45    19    43    1
    46    19    44    1
    47    21    45    1
    48    27    46    1
    49    27    47    1
    50    27    48    1
@<TRIPOS>MOLECULE
16219006
 85 88 0 0 0
SMALL
GASTEIGER

@<TRIPOS>ATOM
      1 O           4.2511   -0.9914    2.2750 O.2     1  PRO11      -0.2738
      2 O           3.2379    1.1048   -1.3337 O.2     5  ASP55      -0.2735
      3 O           1.9366   -1.8325   -1.7432 O.2     2  VAL22      -0.2738
      4 O          -0.5639    2.9799    1.1493 O.2     4  TRP44      -0.2738
      5 O          -0.6826   -1.2634    1.7987 O.2     3  LEU33      -0.2738
      6 OD1         3.5728    4.6831   -1.0378 O.co2   5  ASP55      -0.5497
      7 OD2         3.1941    4.8727   -3.2777 O.co2   5  ASP55      -0.5497
      8 N           3.4735    1.8358    0.7978 N.am    1  PRO11      -0.2884
      9 N           4.1632   -1.0920   -0.0121 N.am    2  VAL22      -0.3022
     10 N           0.5210    1.9523   -0.5921 N.am    5  ASP55      -0.3021
     11 N           1.1911   -2.8072    0.1812 N.am    3  LEU33      -0.3025
     12 N          -1.1021   -0.3159   -0.2556 N.am    4  TRP44      -0.3022
     13 NE1        -1.9747    1.6739   -4.1458 N.ar    4  TRP44      -0.3604
     14 CA          4.6967    1.0667    1.0162 C.3     1  PRO11       0.1023
     15 CB          5.3096    1.6778    2.2782 C.3     1  PRO11      -0.0243
     16 CG          4.1077    2.2520    3.0195 C.3     1  PRO11      -0.0350
     17 CD          3.2252    2.7591    1.8908 C.3     1  PRO11       0.0156
     18 C           4.3606   -0.4317    1.1853 C.2     1  PRO11       0.2342
     19 C           2.9026    1.9147   -0.4568 C.2     5  ASP55       0.2369
     20 CA          3.6129   -2.4381   -0.0676 C.3     2  VAL22       0.1017
     21 CA          1.6854    2.8510   -0.6546 C.3     5  ASP55       0.1047
     22 CB          4.5230   -3.4021   -0.8607 C.3     2  VAL22      -0.0197
     23 CA         -0.2004   -2.5873   -0.1817 C.3     3  LEU33       0.0996
     24 C           2.1870   -2.3236   -0.6442 C.2     2  VAL22       0.2342
     25 CB          1.7395    3.5304   -2.0130 C.3     5  ASP55       0.0138
     26 CA         -1.5778    0.9720    0.2619 C.3     4  TRP44       0.1034
     27 CB         -1.0786   -3.7873    0.1893 C.3     3  LEU33      -0.0236
     28 CG         -0.7319   -5.0859   -0.5694 C.3     3  LEU33      -0.0446
     29 C          -0.4694    2.0440    0.3570 C.2     4  TRP44       0.2343
     30 CB         -2.7816    1.4887   -0.5457 C.3     4  TRP44       0.0013
     31 C          -0.6822   -1.3331    0.5736 C.2     3  LEU33       0.2340
     32 CG1         4.7655   -2.9944   -2.3164 C.3     2  VAL22      -0.0605
     33 CG2         3.9935   -4.8387   -0.8028 C.3     2  VAL22      -0.0605
     34 CG         -2.4934    1.8296   -1.9813 C.ar    4  TRP44      -0.0201
     35 CG          2.9541    4.4459   -2.1126 C.2     5  ASP55       0.0440
     36 CD1        -1.6837   -6.2032   -0.1359 C.3     3  LEU33      -0.0626
     37 CD2        -0.7926   -4.9206   -2.0896 C.3     3  LEU33      -0.0626
     38 CD2        -2.4138    3.1494   -2.5374 C.ar    4  TRP44       0.0029
     39 CD1        -2.2675    0.9472   -3.0223 C.ar    4  TRP44       0.0060
     40 CE2        -2.0914    3.0175   -3.8875 C.ar    4  TRP44       0.0467
     41 CE3        -2.5714    4.4487   -2.0115 C.ar    4  TRP44      -0.0523
     42 CZ2        -1.9136    4.1154   -4.7373 C.ar    4  TRP44      -0.0378
     43 CZ3        -2.4095    5.5579   -2.8496 C.ar    4  TRP44      -0.0611
     44 CH2        -2.0829    5.3907   -4.1923 C.ar    4  TRP44      -0.0598
     45 H           3.9605   -0.4792   -0.8127 H       2  VAL22       0.1495
     46 H           0.5743    1.1430   -1.1931 H       5  ASP55       0.1495
     47 H           1.3931   -2.8190    1.1776 H       3  LEU33       0.1495
     48 H          -0.8258   -0.3463   -1.2289 H       4  TRP44       0.1495
     49 HE1        -1.7116    1.2896   -5.0424 H       4  TRP44       0.1653
     50 HA          5.3790    1.1783    0.1648 H       1  PRO11       0.0597
     51 HB1         5.9838    2.4967    1.9976 H       1  PRO11       0.0288
     52 HB2         5.8777    0.9683    2.8868 H       1  PRO11       0.0288
     53 HG1         4.3806    3.0401    3.7266 H       1  PRO11       0.0281
     54 HG2         3.5943    1.4570    3.5731 H       1  PRO11       0.0281
     55 HD1         2.1668    2.7658    2.1638 H       1  PRO11       0.0465
     56 HD2         3.5272    3.7630    1.5750 H       1  PRO11       0.0465
     57 HA          3.5385   -2.8261    0.9555 H       2  VAL22       0.0597
     58 HA          1.6070    3.5963    0.1396 H       5  ASP55       0.0598
     59 HB          5.5042   -3.3989   -0.3656 H       2  VAL22       0.0318
     60 HA         -0.2844   -2.3994   -1.2565 H       3  LEU33       0.0594
     61 HB1         0.8380    4.1347   -2.1691 H       5  ASP55       0.0348
     62 HB2         1.7803    2.7930   -2.8245 H       5  ASP55       0.0348
     63 HA         -1.9143    0.8000    1.2927 H       4  TRP44       0.0598
     64 HB1        -2.1291   -3.5269    0.0016 H       3  LEU33       0.0290
     65 HB2        -1.0016   -3.9780    1.2684 H       3  LEU33       0.0290
     66 HG          0.2867   -5.3928   -0.3010 H       3  LEU33       0.0296
     67 HB1        -3.1949    2.3709   -0.0412 H       4  TRP44       0.0337
     68 HB2        -3.5762    0.7305   -0.5296 H       4  TRP44       0.0337
     69 HG11        3.8555   -3.0680   -2.9190 H       2  VAL22       0.0233
     70 HG12        5.5121   -3.6534   -2.7742 H       2  VAL22       0.0233
     71 HG13        5.1469   -1.9713   -2.3881 H       2  VAL22       0.0233
     72 HG21        3.0362   -4.9381   -1.3250 H       2  VAL22       0.0233
     73 HG22        3.8516   -5.1612    0.2341 H       2  VAL22       0.0233
     74 HG23        4.7023   -5.5306   -1.2708 H       2  VAL22       0.0233
     75 HD11       -2.7211   -5.9620   -0.3923 H       3  LEU33       0.0232
     76 HD12       -1.6291   -6.3639    0.9458 H       3  LEU33       0.0232
     77 HD13       -1.4248   -7.1472   -0.6270 H       3  LEU33       0.0232
     78 HD21       -1.7551   -4.5047   -2.4061 H       3  LEU33       0.0232
     79 HD22       -0.6579   -5.8841   -2.5928 H       3  LEU33       0.0232
     80 HD23        0.0016   -4.2599   -2.4508 H       3  LEU33       0.0232
     81 HD1        -2.2592   -0.1333   -3.0595 H       4  TRP44       0.0810
     82 HE3        -2.7967    4.5970   -0.9596 H       4  TRP44       0.0624
     83 HZ2        -1.6309    3.9902   -5.7769 H       4  TRP44       0.0638
     84 HZ3        -2.5143    6.5588   -2.4395 H       4  TRP44       0.0618
     85 HH2        -1.9313    6.2648   -4.8209 H       4  TRP44       0.0618
@<TRIPOS>BOND
     1     1    18    2
     2     2    19    2
     3     3    24    2
     4     4    29    2
     5     5    31    2
     6     6    35   ar
     7     7    35   ar
     8     8    14    1
     9     8    17    1
    10     8    19   am
    11     9    18   am
    12     9    20    1
    13    10    21    1
    14    10    29   am
    15    11    23    1
    16    11    24   am
    17    12    26    1
    18    12    31   am
    19    13    39   ar
    20    13    40   ar
    21    14    15    1
    22    14    18    1
    23    15    16    1
    24    16    17    1
    25    19    21    1
    26    20    22    1
    27    20    24    1
    28    21    25    1
    29    22    32    1
    30    22    33    1
    31    23    27    1
    32    23    31    1
    33    25    35    1
    34    26    29    1
    35    26    30    1
    36    27    28    1
    37    28    36    1
    38    28    37    1
    39    30    34    1
    40    34    38   ar
    41    34    39   ar
    42    38    40   ar
    43    38    41   ar
    44    40    42   ar
    45    41    43   ar
    46    42    44   ar
    47    43    44   ar
    48     9    45    1
    49    10    46    1
    50    11    47    1
    51    12    48    1
    52    13    49    1
    53    14    50    1
    54    15    51    1
    55    15    52    1
    56    16    53    1
    57    16    54    1
    58    17    55    1
    59    17    56    1
    60    20    57    1
    61    21    58    1
    62    22    59    1
    63    23    60    1
    64    25    61    1
    65    25    62    1
    66    26    63    1
    67    27    64    1
    68    27    65    1
    69    28    66    1
    70    30    67    1
    71    30    68    1
    72    32    69    1
    73    32    70    1
    74    32    71    1
    75    33    72    1
    76    33    73    1
    77    33    74    1
    78    36    75    1
    79    36    76    1
    80    36    77    1
    81    37    78    1
    82    37    79    1
    83    37    80    1
    84    39    81    1
    85    41    82    1
    86    42    83    1
    87    43    84    1
    88    44    85    1
