@<TRIPOS>MOLECULE
*****
 43 45 0 0 0
SMALL
GASTEIGER

@<TRIPOS>ATOM
      1 BR         -8.3869    1.6557    3.9815 Br      1  LIG11      -0.0503
      2 BR        -12.7214    4.5540    0.2967 Br      1  LIG11      -0.0472
      3 S          -4.5241    6.5569   -0.2759 S.O2    1  LIG11       0.1079
      4 O          -8.2161    2.7631   -2.8129 O.3     1  LIG11      -0.4724
      5 O          -4.2818    6.8017    1.1208 O.2     1  LIG11      -0.1383
      6 O          -3.9085    7.3640   -1.2968 O.2     1  LIG11      -0.1383
      7 O          -9.8539    3.9801   -4.8672 O.3     1  LIG11      -0.4590
      8 N          -4.0532    4.9892   -0.5858 N.3     1  LIG11      -0.1906
      9 N          -6.1711    6.5201   -0.5236 N.pl3   1  LIG11      -0.1891
     10 N          -6.3904    6.4019   -2.7715 N.ar    1  LIG11      -0.2186
     11 N          -7.1795    4.5076   -3.9229 N.ar    1  LIG11      -0.2008
     12 N         -11.1292    2.9660   -3.1706 N.ar    1  LIG11      -0.2022
     13 N         -10.7807    5.3291   -3.2698 N.ar    1  LIG11      -0.2022
     14 C          -7.2142    4.4819   -1.4786 C.ar    1  LIG11       0.0848
     15 C          -6.6326    5.7483   -1.6211 C.ar    1  LIG11       0.1532
     16 C          -7.5128    3.8063   -0.1638 C.ar    1  LIG11      -0.0094
     17 C          -7.4872    3.9341   -2.7367 C.ar    1  LIG11       0.2276
     18 C          -7.6635    4.5188    1.0463 C.ar    1  LIG11      -0.0527
     19 C          -7.6489    2.4044   -0.0471 C.ar    1  LIG11      -0.0527
     20 C          -8.2654    2.1537   -4.1053 C.3     1  LIG11       0.1252
     21 C          -7.9005    3.8879    2.2789 C.ar    1  LIG11      -0.0472
     22 C          -7.9329    1.7652    1.1710 C.ar    1  LIG11      -0.0472
     23 C          -6.6766    5.7350   -3.8816 C.ar    1  LIG11       0.1219
     24 C          -9.3434    2.6686   -5.0863 C.3     1  LIG11       0.1267
     25 C          -8.0450    2.5111    2.3333 C.ar    1  LIG11       0.0179
     26 C         -10.6463    4.0817   -3.7479 C.ar    1  LIG11       0.3180
     27 C         -11.7393    3.1373   -1.9802 C.ar    1  LIG11       0.0483
     28 C         -11.4154    5.4403   -2.0846 C.ar    1  LIG11       0.0483
     29 C         -11.9024    4.3636   -1.3809 C.ar    1  LIG11       0.0543
     30 H          -3.8810    4.8964   -1.5870 H       1  LIG11       0.1456
     31 H          -3.2022    4.7951   -0.0590 H       1  LIG11       0.1456
     32 H          -6.4495    7.4892   -0.6779 H       1  LIG11       0.1763
     33 H          -7.5931    5.6028    1.0803 H       1  LIG11       0.0624
     34 H          -7.5287    1.7522   -0.9072 H       1  LIG11       0.0624
     35 H          -7.2725    2.1455   -4.5740 H       1  LIG11       0.0731
     36 H          -8.4802    1.0924   -3.9273 H       1  LIG11       0.0731
     37 H          -7.9657    4.4894    3.1817 H       1  LIG11       0.0629
     38 H          -8.0501    0.6843    1.1924 H       1  LIG11       0.0629
     39 H          -6.4814    6.2266   -4.8275 H       1  LIG11       0.1049
     40 H         -10.1630    1.9446   -5.1885 H       1  LIG11       0.0732
     41 H          -8.8814    2.6849   -6.0820 H       1  LIG11       0.0732
     42 H         -12.0866    2.2222   -1.5098 H       1  LIG11       0.0843
     43 H         -11.5051    6.4554   -1.7095 H       1  LIG11       0.0843
@<TRIPOS>BOND
     1     1    25    1
     2     2    29    1
     3     3     9    1
     4     3     8    1
     5     3     6    2
     6     3     5    2
     7     4    17    1
     8     4    20    1
     9     7    24    1
    10     7    26    1
    11     9    15    1
    12    10    15   ar
    13    10    23   ar
    14    11    17   ar
    15    11    23   ar
    16    12    26   ar
    17    12    27   ar
    18    13    26   ar
    19    13    28   ar
    20    14    15   ar
    21    14    17   ar
    22    16    18   ar
    23    16    19   ar
    24    16    14    1
    25    18    21   ar
    26    19    22   ar
    27    20    24    1
    28    21    25   ar
    29    22    25   ar
    30    27    29   ar
    31    28    29   ar
    32     8    30    1
    33     8    31    1
    34     9    32    1
    35    18    33    1
    36    19    34    1
    37    20    35    1
    38    20    36    1
    39    21    37    1
    40    22    38    1
    41    23    39    1
    42    24    40    1
    43    24    41    1
    44    27    42    1
    45    28    43    1
@<TRIPOS>MOLECULE
../1EDN/3STEPMIN_17-21.pdb
 47 48 0 0 0
SMALL
GASTEIGER

@<TRIPOS>ATOM
      1  N         -5.4290    0.8830   -1.1740 N.3    17  LEU17      -0.1231
      2  CA        -6.8230    0.6710   -0.7980 C.3    17  LEU17       0.1693
      3  CB        -6.9230   -0.4370    0.2770 C.3    17  LEU17       0.0284
      4  CG        -6.4950   -1.8450   -0.1910 C.3    17  LEU17       0.0019
      5  CD1       -6.5150   -2.8060    0.9980 C.3    17  LEU17       0.0001
      6  CD2       -7.4310   -2.4140   -1.2600 C.3    17  LEU17       0.0001
      7  C         -7.3990    2.0370   -0.3760 C.2    17  LEU17       0.2592
      8  O         -7.4670    2.9330   -1.2040 O.2    17  LEU17      -0.2718
      9  N         -7.7380    2.2560    0.8970 N.am   18  ASP18      -0.1960
     10  CA        -8.5130    3.4280    1.3730 C.3    18  ASP18       0.1840
     11  CB        -9.0510    3.1310    2.7840 C.3    18  ASP18       0.1450
     12  CG       -10.5470    3.4340    2.8500 C.2    18  ASP18       0.3671
     13  OD1      -11.3300    2.4930    2.5610 O.co2  18  ASP18      -0.2456
     14  OD2      -10.9050    4.5930    3.1470 O.co2  18  ASP18      -0.2456
     15  C         -7.8270    4.8120    1.2910 C.2    18  ASP18       0.2622
     16  O         -8.3890    5.8210    1.7350 O.2    18  ASP18      -0.2715
     17  N         -6.6250    4.8510    0.7010 N.am   19  ILE19      -0.1963
     18  CA        -5.9180    6.0210    0.1680 C.3    19  ILE19       0.1727
     19  CB        -4.3960    5.7260    0.0740 C.3    19  ILE19       0.0290
     20  CG2       -3.6150    6.9530   -0.4300 C.3    19  ILE19       0.0023
     21  CG1       -3.7730    5.2100    1.3920 C.3    19  ILE19       0.0022
     22  CD1       -3.8620    6.1700    2.5820 C.3    19  ILE19       0.0001
     23  C         -6.4970    6.4050   -1.2110 C.2    19  ILE19       0.2616
     24  O         -7.0070    7.5130   -1.3720 O.2    19  ILE19      -0.2715
     25  N         -6.3950    5.4980   -2.1940 N.am   20  ILE20      -0.1963
     26  CA        -6.9990    5.5490   -3.5400 C.3    20  ILE20       0.1727
     27  CB        -6.0900    6.2460   -4.5940 C.3    20  ILE20       0.0290
     28  CG2       -6.7980    6.2490   -5.9680 C.3    20  ILE20       0.0023
     29  CG1       -5.7140    7.6970   -4.2070 C.3    20  ILE20       0.0022
     30  CD1       -4.7810    8.4150   -5.1910 C.3    20  ILE20       0.0001
     31  C         -7.3180    4.1070   -3.9880 C.2    20  ILE20       0.2617
     32  O         -6.4020    3.3070   -4.2100 O.2    20  ILE20      -0.2715
     33  N         -8.6100    3.8210   -4.1620 N.am   21  TRP21      -0.1938
     34  CA        -9.2240    2.5950   -4.7020 C.3    21  TRP21       0.2021
     35  CB        -9.7020    1.6830   -3.5450 C.3    21  TRP21       0.0612
     36  CG       -10.4970    2.2370   -2.3850 C.ar   21  TRP21       0.0007
     37  CD1      -10.6860    1.5470   -1.2340 C.ar   21  TRP21       0.0946
     38  NE1      -11.3350    2.3340   -0.3040 N.ar   21  TRP21      -0.2442
     39  CE2      -11.5720    3.5950   -0.7990 C.ar   21  TRP21       0.0810
     40  CZ2      -12.0950    4.7480   -0.2000 C.ar   21  TRP21       0.0191
     41  CH2      -12.2340    5.9130   -0.9670 C.ar   21  TRP21       0.0015
     42  CZ3      -11.8800    5.8920   -2.3260 C.ar   21  TRP21       0.0001
     43  CE3      -11.3480    4.7280   -2.9100 C.ar   21  TRP21       0.0012
     44  CD2      -11.1270    3.5500   -2.1550 C.ar   21  TRP21       0.0152
     45  C        -10.3230    2.8760   -5.7330 C.2    21  TRP21       0.3845
     46  O        -11.0800    1.9620   -6.0950 O.co2  21  TRP21      -0.2437
     47  OXT      -10.4270    4.0430   -6.2080 O.co2  21  TRP21      -0.2437
@<TRIPOS>BOND
     1    47    45   ar
     2    46    45   ar
     3    28    27    1
     4    45    34    1
     5    30    29    1
     6    34    33    1
     7    34    35    1
     8    27    29    1
     9    27    26    1
    10    32    31    2
    11    33    31   am
    12    31    26    1
    13    35    36    1
    14    26    25    1
    15    43    42   ar
    16    43    44   ar
    17    36    44   ar
    18    36    37   ar
    19    42    41   ar
    20    25    23   am
    21    44    39   ar
    22    24    23    2
    23     6     4    1
    24    37    38   ar
    25    23    18    1
    26     8     7    2
    27     1     2    1
    28    41    40   ar
    29    39    38   ar
    30    39    40   ar
    31     2     7    1
    32     2     3    1
    33    20    19    1
    34     7     9   am
    35     4     3    1
    36     4     5    1
    37    19    18    1
    38    19    21    1
    39    18    17    1
    40    17    15   am
    41     9    10    1
    42    15    10    1
    43    15    16    2
    44    10    11    1
    45    21    22    1
    46    13    12   ar
    47    11    12    1
    48    12    14   ar
