@<TRIPOS>MOLECULE
9843631
 45 48 0 0 0
SMALL
GASTEIGER

@<TRIPOS>ATOM
      1 S          -6.7630    5.9868   -2.5098 S.O2    1  LIG11       0.0752
      2 O          -8.0961    2.6527   -3.2160 O.2     1  LIG11      -0.3377
      3 O          -6.4709    6.9600   -3.5417 O.2     1  LIG11      -0.1499
      4 O          -8.0362    6.0016   -1.8257 O.2     1  LIG11      -0.1499
      5 O         -10.6965    3.8076    3.6440 O.2     1  LIG11      -0.4436
      6 N          -6.4533    4.4421   -3.1459 N.pl3   1  LIG11      -0.1831
      7 N          -9.1784    2.2512   -3.9695 N.ar    1  LIG11      -0.0810
      8 N         -10.9954    2.2414    2.0450 N.ar    1  LIG11      -0.2175
      9 C          -5.4461    6.0737   -1.2953 C.ar    1  LIG11       0.1162
     10 C          -5.5690    5.5818    0.0210 C.ar    1  LIG11       0.0087
     11 C          -6.7789    4.9853    0.6141 C.ar    1  LIG11      -0.0160
     12 C          -4.2448    6.6677   -1.7325 C.ar    1  LIG11      -0.0345
     13 C          -7.5928    3.8142   -3.7128 C.ar    1  LIG11       0.2399
     14 C          -4.4334    5.6911    0.8552 C.ar    1  LIG11      -0.0521
     15 C          -8.2837    4.1609   -4.8535 C.ar    1  LIG11       0.0350
     16 C          -7.2656    3.7296    0.2268 C.ar    1  LIG11      -0.0533
     17 C          -7.4494    5.6535    1.6532 C.ar    1  LIG11      -0.0533
     18 C          -3.1494    6.7663   -0.8788 C.ar    1  LIG11      -0.0599
     19 C          -3.2416    6.2720    0.4146 C.ar    1  LIG11      -0.0611
     20 C          -9.0815    3.8601    1.8507 C.ar    1  LIG11       0.0369
     21 C          -9.2932    3.1589   -4.9451 C.ar    1  LIG11       0.0854
     22 C          -8.4149    3.1880    0.8186 C.ar    1  LIG11      -0.0489
     23 C          -8.5773    5.0968    2.2689 C.ar    1  LIG11      -0.0489
     24 C          -8.0336    5.2648   -5.8075 C.3     1  LIG11      -0.0330
     25 C         -10.3534    3.0108   -5.9697 C.3     1  LIG11      -0.0188
     26 C         -10.2679    3.2639    2.4578 C.ar    1  LIG11       0.2271
     27 C         -11.7850    3.0613    3.9792 C.ar    1  LIG11       0.1125
     28 C         -11.9713    2.1200    3.0002 C.ar    1  LIG11       0.0663
     29 H          -6.0103    3.8447   -2.4522 H       1  LIG11       0.1768
     30 H          -4.1538    7.0593   -2.7450 H       1  LIG11       0.0637
     31 H          -4.4764    5.3174    1.8789 H       1  LIG11       0.0624
     32 H          -6.7656    3.1428   -0.5358 H       1  LIG11       0.0624
     33 H          -7.0950    6.6245    1.9964 H       1  LIG11       0.0624
     34 H          -2.2277    7.2281   -1.2249 H       1  LIG11       0.0618
     35 H          -2.3904    6.3431    1.0877 H       1  LIG11       0.0618
     36 H          -8.7884    2.2256    0.4693 H       1  LIG11       0.0625
     37 H          -9.0640    5.6490    3.0702 H       1  LIG11       0.0625
     38 H          -7.0033    5.6263   -5.7475 H       1  LIG11       0.0280
     39 H          -8.1893    4.9238   -6.8372 H       1  LIG11       0.0280
     40 H          -8.7131    6.1007   -5.6173 H       1  LIG11       0.0280
     41 H         -11.1604    2.3585   -5.6198 H       1  LIG11       0.0294
     42 H         -10.7930    3.9823   -6.2166 H       1  LIG11       0.0294
     43 H          -9.9364    2.5778   -6.8845 H       1  LIG11       0.0294
     44 H         -12.2866    3.3219    4.8990 H       1  LIG11       0.1046
     45 H         -12.7434    1.3668    2.9326 H       1  LIG11       0.0862
@<TRIPOS>BOND
     1     1     3    2
     2     1     4    2
     3     1     6    1
     4     1     9    1
     5     2     7   ar
     6     2    13   ar
     7     5    26   ar
     8     5    27   ar
     9     6    13    1
    10     7    21   ar
    11     8    26   ar
    12     8    28   ar
    13     9    10   ar
    14     9    12   ar
    15    10    11    1
    16    10    14   ar
    17    11    16   ar
    18    11    17   ar
    19    12    18   ar
    20    13    15   ar
    21    14    19   ar
    22    15    21   ar
    23    15    24    1
    24    16    22   ar
    25    17    23   ar
    26    18    19   ar
    27    20    22   ar
    28    20    23   ar
    29    20    26    1
    30    21    25    1
    31    27    28   ar
    32     6    29    1
    33    12    30    1
    34    14    31    1
    35    16    32    1
    36    17    33    1
    37    18    34    1
    38    19    35    1
    39    22    36    1
    40    23    37    1
    41    24    38    1
    42    24    39    1
    43    24    40    1
    44    25    41    1
    45    25    42    1
    46    25    43    1
    47    27    44    1
    48    28    45    1
@<TRIPOS>MOLECULE
../1EDN/3STEPMIN_17-21.pdb
 47 48 0 0 0
SMALL
GASTEIGER

@<TRIPOS>ATOM
      1  N         -5.4290    0.8830   -1.1740 N.3    17  LEU17      -0.1231
      2  CA        -6.8230    0.6710   -0.7980 C.3    17  LEU17       0.1693
      3  CB        -6.9230   -0.4370    0.2770 C.3    17  LEU17       0.0284
      4  CG        -6.4950   -1.8450   -0.1910 C.3    17  LEU17       0.0019
      5  CD1       -6.5150   -2.8060    0.9980 C.3    17  LEU17       0.0001
      6  CD2       -7.4310   -2.4140   -1.2600 C.3    17  LEU17       0.0001
      7  C         -7.3990    2.0370   -0.3760 C.2    17  LEU17       0.2592
      8  O         -7.4670    2.9330   -1.2040 O.2    17  LEU17      -0.2718
      9  N         -7.7380    2.2560    0.8970 N.am   18  ASP18      -0.1960
     10  CA        -8.5130    3.4280    1.3730 C.3    18  ASP18       0.1840
     11  CB        -9.0510    3.1310    2.7840 C.3    18  ASP18       0.1450
     12  CG       -10.5470    3.4340    2.8500 C.2    18  ASP18       0.3671
     13  OD1      -11.3300    2.4930    2.5610 O.co2  18  ASP18      -0.2456
     14  OD2      -10.9050    4.5930    3.1470 O.co2  18  ASP18      -0.2456
     15  C         -7.8270    4.8120    1.2910 C.2    18  ASP18       0.2622
     16  O         -8.3890    5.8210    1.7350 O.2    18  ASP18      -0.2715
     17  N         -6.6250    4.8510    0.7010 N.am   19  ILE19      -0.1963
     18  CA        -5.9180    6.0210    0.1680 C.3    19  ILE19       0.1727
     19  CB        -4.3960    5.7260    0.0740 C.3    19  ILE19       0.0290
     20  CG2       -3.6150    6.9530   -0.4300 C.3    19  ILE19       0.0023
     21  CG1       -3.7730    5.2100    1.3920 C.3    19  ILE19       0.0022
     22  CD1       -3.8620    6.1700    2.5820 C.3    19  ILE19       0.0001
     23  C         -6.4970    6.4050   -1.2110 C.2    19  ILE19       0.2616
     24  O         -7.0070    7.5130   -1.3720 O.2    19  ILE19      -0.2715
     25  N         -6.3950    5.4980   -2.1940 N.am   20  ILE20      -0.1963
     26  CA        -6.9990    5.5490   -3.5400 C.3    20  ILE20       0.1727
     27  CB        -6.0900    6.2460   -4.5940 C.3    20  ILE20       0.0290
     28  CG2       -6.7980    6.2490   -5.9680 C.3    20  ILE20       0.0023
     29  CG1       -5.7140    7.6970   -4.2070 C.3    20  ILE20       0.0022
     30  CD1       -4.7810    8.4150   -5.1910 C.3    20  ILE20       0.0001
     31  C         -7.3180    4.1070   -3.9880 C.2    20  ILE20       0.2617
     32  O         -6.4020    3.3070   -4.2100 O.2    20  ILE20      -0.2715
     33  N         -8.6100    3.8210   -4.1620 N.am   21  TRP21      -0.1938
     34  CA        -9.2240    2.5950   -4.7020 C.3    21  TRP21       0.2021
     35  CB        -9.7020    1.6830   -3.5450 C.3    21  TRP21       0.0612
     36  CG       -10.4970    2.2370   -2.3850 C.ar   21  TRP21       0.0007
     37  CD1      -10.6860    1.5470   -1.2340 C.ar   21  TRP21       0.0946
     38  NE1      -11.3350    2.3340   -0.3040 N.ar   21  TRP21      -0.2442
     39  CE2      -11.5720    3.5950   -0.7990 C.ar   21  TRP21       0.0810
     40  CZ2      -12.0950    4.7480   -0.2000 C.ar   21  TRP21       0.0191
     41  CH2      -12.2340    5.9130   -0.9670 C.ar   21  TRP21       0.0015
     42  CZ3      -11.8800    5.8920   -2.3260 C.ar   21  TRP21       0.0001
     43  CE3      -11.3480    4.7280   -2.9100 C.ar   21  TRP21       0.0012
     44  CD2      -11.1270    3.5500   -2.1550 C.ar   21  TRP21       0.0152
     45  C        -10.3230    2.8760   -5.7330 C.2    21  TRP21       0.3845
     46  O        -11.0800    1.9620   -6.0950 O.co2  21  TRP21      -0.2437
     47  OXT      -10.4270    4.0430   -6.2080 O.co2  21  TRP21      -0.2437
@<TRIPOS>BOND
     1    47    45   ar
     2    46    45   ar
     3    28    27    1
     4    45    34    1
     5    30    29    1
     6    34    33    1
     7    34    35    1
     8    27    29    1
     9    27    26    1
    10    32    31    2
    11    33    31   am
    12    31    26    1
    13    35    36    1
    14    26    25    1
    15    43    42   ar
    16    43    44   ar
    17    36    44   ar
    18    36    37   ar
    19    42    41   ar
    20    25    23   am
    21    44    39   ar
    22    24    23    2
    23     6     4    1
    24    37    38   ar
    25    23    18    1
    26     8     7    2
    27     1     2    1
    28    41    40   ar
    29    39    38   ar
    30    39    40   ar
    31     2     7    1
    32     2     3    1
    33    20    19    1
    34     7     9   am
    35     4     3    1
    36     4     5    1
    37    19    18    1
    38    19    21    1
    39    18    17    1
    40    17    15   am
    41     9    10    1
    42    15    10    1
    43    15    16    2
    44    10    11    1
    45    21    22    1
    46    13    12   ar
    47    11    12    1
    48    12    14   ar
