@<TRIPOS>MOLECULE
01479498K
 57 61 0 0 0
SMALL
GASTEIGER

@<TRIPOS>ATOM
      1 C          -7.9220    3.6892    0.9396 C.3     1  LIG11       0.1526
      2 C          -7.2324    4.5660   -0.0624 C.2     1  LIG11       0.0278
      3 C          -7.4940    2.2177    0.9413 C.ar    1  LIG11       0.0009
      4 O          -9.3708    3.7152    0.8340 O.3     1  LIG11      -0.4789
      5 C          -7.7899    4.9369   -1.2305 C.2     1  LIG11       0.0016
      6 C          -5.8497    5.0132    0.3932 C.2     1  LIG11       0.0721
      7 C          -7.1756    1.5349   -0.2487 C.ar    1  LIG11      -0.0091
      8 C          -7.4896    1.5001    2.1633 C.ar    1  LIG11      -0.0511
      9 C          -9.8420    3.7579   -0.4508 C.ar    1  LIG11       0.1298
     10 C          -9.1149    4.3311   -1.4988 C.ar    1  LIG11       0.0283
     11 C          -7.0693    5.8174   -2.1708 C.ar    1  LIG11      -0.0165
     12 O          -4.8814    4.4460   -0.1822 O.co2   1  LIG11      -0.5448
     13 O          -5.8536    5.8470    1.3438 O.co2   1  LIG11      -0.5448
     14 C          -6.8678    0.1930   -0.1765 C.ar    1  LIG11       0.1666
     15 C          -7.1666    0.1390    2.2072 C.ar    1  LIG11      -0.0158
     16 C         -11.0956    3.1918   -0.6747 C.ar    1  LIG11      -0.0158
     17 C          -9.6472    4.2740   -2.7965 C.ar    1  LIG11      -0.0087
     18 C          -7.2927    7.1969   -2.1579 C.ar    1  LIG11      -0.0505
     19 C          -6.2003    5.2738   -3.1225 C.ar    1  LIG11      -0.0505
     20 C          -6.8624   -0.4855    1.0180 C.ar    1  LIG11       0.1662
     21 O          -6.5548   -0.6080   -1.2320 O.3     1  LIG11      -0.4526
     22 C         -11.5965    3.1163   -1.9732 C.ar    1  LIG11      -0.0164
     23 C         -10.8550    3.6187   -3.0437 C.ar    1  LIG11       0.1217
     24 C          -6.6791    8.0142   -3.1114 C.ar    1  LIG11      -0.0194
     25 C          -5.5924    6.0925   -4.0798 C.ar    1  LIG11      -0.0194
     26 O          -6.5387   -1.7986    0.8679 O.3     1  LIG11      -0.4526
     27 C          -6.3105   -1.8542   -0.5556 C.3     1  LIG11       0.2332
     28 O         -11.3983    3.3946   -4.2795 O.3     1  LIG11      -0.4893
     29 C          -5.8460    7.4652   -4.0893 C.ar    1  LIG11       0.1201
     30 C         -10.5180    3.3903   -5.4130 C.3     1  LIG11       0.0946
     31 O          -5.3365    8.3669   -4.9861 O.3     1  LIG11      -0.4951
     32 C         -11.4115    3.2416   -6.6437 C.3     1  LIG11      -0.0281
     33 C          -9.5307    2.2225   -5.3678 C.3     1  LIG11      -0.0281
     34 C          -4.6671    7.8202   -6.1148 C.3     1  LIG11       0.0788
     35 H          -7.7202    4.0962    1.9389 H       1  LIG11       0.0837
     36 H          -7.1633    2.0422   -1.2071 H       1  LIG11       0.0659
     37 H          -7.7421    2.0163    3.0876 H       1  LIG11       0.0623
     38 H          -7.1581   -0.4042    3.1437 H       1  LIG11       0.0655
     39 H         -11.6533    2.7695    0.1551 H       1  LIG11       0.0655
     40 H          -9.0820    4.7145   -3.6096 H       1  LIG11       0.0661
     41 H          -7.9382    7.6349   -1.4013 H       1  LIG11       0.0625
     42 H          -5.9819    4.2087   -3.1028 H       1  LIG11       0.0625
     43 H         -12.5498    2.6297   -2.1560 H       1  LIG11       0.0655
     44 H          -6.8550    9.0855   -3.0886 H       1  LIG11       0.0654
     45 H          -4.9170    5.6250   -4.7856 H       1  LIG11       0.0654
     46 H          -6.9697   -2.6181   -0.9837 H       1  LIG11       0.1166
     47 H          -5.2709   -2.1523   -0.7331 H       1  LIG11       0.1166
     48 H          -9.9956    4.3488   -5.5023 H       1  LIG11       0.0727
     49 H         -11.9831    2.3065   -6.6026 H       1  LIG11       0.0265
     50 H         -12.1434    4.0559   -6.6877 H       1  LIG11       0.0265
     51 H         -10.8233    3.2509   -7.5675 H       1  LIG11       0.0265
     52 H         -10.0526    1.2732   -5.1973 H       1  LIG11       0.0265
     53 H          -8.9616    2.1490   -6.3009 H       1  LIG11       0.0265
     54 H          -8.8089    2.3324   -4.5519 H       1  LIG11       0.0265
     55 H          -4.4080    8.6474   -6.7819 H       1  LIG11       0.0660
     56 H          -3.7359    7.3261   -5.8204 H       1  LIG11       0.0660
     57 H          -5.3189    7.1386   -6.6716 H       1  LIG11       0.0660
@<TRIPOS>BOND
     1     1     4    1
     2     1     2    1
     3     1     3    1
     4     2     5    2
     5     2     6    1
     6     3     8   ar
     7     3     7   ar
     8     4     9    1
     9     5    10    1
    10     5    11    1
    11     6    13   ar
    12     6    12   ar
    13     7    14   ar
    14     8    15   ar
    15     9    16   ar
    16     9    10   ar
    17    10    17   ar
    18    11    18   ar
    19    11    19   ar
    20    14    21    1
    21    14    20   ar
    22    15    20   ar
    23    16    22   ar
    24    17    23   ar
    25    18    24   ar
    26    19    25   ar
    27    20    26    1
    28    21    27    1
    29    22    23   ar
    30    23    28    1
    31    24    29   ar
    32    25    29   ar
    33    26    27    1
    34    28    30    1
    35    29    31    1
    36    30    33    1
    37    30    32    1
    38    31    34    1
    39     1    35    1
    40     7    36    1
    41     8    37    1
    42    15    38    1
    43    16    39    1
    44    17    40    1
    45    18    41    1
    46    19    42    1
    47    22    43    1
    48    24    44    1
    49    25    45    1
    50    27    46    1
    51    27    47    1
    52    30    48    1
    53    32    49    1
    54    32    50    1
    55    32    51    1
    56    33    52    1
    57    33    53    1
    58    33    54    1
    59    34    55    1
    60    34    56    1
    61    34    57    1
@<TRIPOS>MOLECULE
../1EDN/3STEPMIN_17-21.pdb
 47 48 0 0 0
SMALL
GASTEIGER

@<TRIPOS>ATOM
      1  N         -5.4290    0.8830   -1.1740 N.3    17  LEU17      -0.1231
      2  CA        -6.8230    0.6710   -0.7980 C.3    17  LEU17       0.1693
      3  CB        -6.9230   -0.4370    0.2770 C.3    17  LEU17       0.0284
      4  CG        -6.4950   -1.8450   -0.1910 C.3    17  LEU17       0.0019
      5  CD1       -6.5150   -2.8060    0.9980 C.3    17  LEU17       0.0001
      6  CD2       -7.4310   -2.4140   -1.2600 C.3    17  LEU17       0.0001
      7  C         -7.3990    2.0370   -0.3760 C.2    17  LEU17       0.2592
      8  O         -7.4670    2.9330   -1.2040 O.2    17  LEU17      -0.2718
      9  N         -7.7380    2.2560    0.8970 N.am   18  ASP18      -0.1960
     10  CA        -8.5130    3.4280    1.3730 C.3    18  ASP18       0.1840
     11  CB        -9.0510    3.1310    2.7840 C.3    18  ASP18       0.1450
     12  CG       -10.5470    3.4340    2.8500 C.2    18  ASP18       0.3671
     13  OD1      -11.3300    2.4930    2.5610 O.co2  18  ASP18      -0.2456
     14  OD2      -10.9050    4.5930    3.1470 O.co2  18  ASP18      -0.2456
     15  C         -7.8270    4.8120    1.2910 C.2    18  ASP18       0.2622
     16  O         -8.3890    5.8210    1.7350 O.2    18  ASP18      -0.2715
     17  N         -6.6250    4.8510    0.7010 N.am   19  ILE19      -0.1963
     18  CA        -5.9180    6.0210    0.1680 C.3    19  ILE19       0.1727
     19  CB        -4.3960    5.7260    0.0740 C.3    19  ILE19       0.0290
     20  CG2       -3.6150    6.9530   -0.4300 C.3    19  ILE19       0.0023
     21  CG1       -3.7730    5.2100    1.3920 C.3    19  ILE19       0.0022
     22  CD1       -3.8620    6.1700    2.5820 C.3    19  ILE19       0.0001
     23  C         -6.4970    6.4050   -1.2110 C.2    19  ILE19       0.2616
     24  O         -7.0070    7.5130   -1.3720 O.2    19  ILE19      -0.2715
     25  N         -6.3950    5.4980   -2.1940 N.am   20  ILE20      -0.1963
     26  CA        -6.9990    5.5490   -3.5400 C.3    20  ILE20       0.1727
     27  CB        -6.0900    6.2460   -4.5940 C.3    20  ILE20       0.0290
     28  CG2       -6.7980    6.2490   -5.9680 C.3    20  ILE20       0.0023
     29  CG1       -5.7140    7.6970   -4.2070 C.3    20  ILE20       0.0022
     30  CD1       -4.7810    8.4150   -5.1910 C.3    20  ILE20       0.0001
     31  C         -7.3180    4.1070   -3.9880 C.2    20  ILE20       0.2617
     32  O         -6.4020    3.3070   -4.2100 O.2    20  ILE20      -0.2715
     33  N         -8.6100    3.8210   -4.1620 N.am   21  TRP21      -0.1938
     34  CA        -9.2240    2.5950   -4.7020 C.3    21  TRP21       0.2021
     35  CB        -9.7020    1.6830   -3.5450 C.3    21  TRP21       0.0612
     36  CG       -10.4970    2.2370   -2.3850 C.ar   21  TRP21       0.0007
     37  CD1      -10.6860    1.5470   -1.2340 C.ar   21  TRP21       0.0946
     38  NE1      -11.3350    2.3340   -0.3040 N.ar   21  TRP21      -0.2442
     39  CE2      -11.5720    3.5950   -0.7990 C.ar   21  TRP21       0.0810
     40  CZ2      -12.0950    4.7480   -0.2000 C.ar   21  TRP21       0.0191
     41  CH2      -12.2340    5.9130   -0.9670 C.ar   21  TRP21       0.0015
     42  CZ3      -11.8800    5.8920   -2.3260 C.ar   21  TRP21       0.0001
     43  CE3      -11.3480    4.7280   -2.9100 C.ar   21  TRP21       0.0012
     44  CD2      -11.1270    3.5500   -2.1550 C.ar   21  TRP21       0.0152
     45  C        -10.3230    2.8760   -5.7330 C.2    21  TRP21       0.3845
     46  O        -11.0800    1.9620   -6.0950 O.co2  21  TRP21      -0.2437
     47  OXT      -10.4270    4.0430   -6.2080 O.co2  21  TRP21      -0.2437
@<TRIPOS>BOND
     1    47    45   ar
     2    46    45   ar
     3    28    27    1
     4    45    34    1
     5    30    29    1
     6    34    33    1
     7    34    35    1
     8    27    29    1
     9    27    26    1
    10    32    31    2
    11    33    31   am
    12    31    26    1
    13    35    36    1
    14    26    25    1
    15    43    42   ar
    16    43    44   ar
    17    36    44   ar
    18    36    37   ar
    19    42    41   ar
    20    25    23   am
    21    44    39   ar
    22    24    23    2
    23     6     4    1
    24    37    38   ar
    25    23    18    1
    26     8     7    2
    27     1     2    1
    28    41    40   ar
    29    39    38   ar
    30    39    40   ar
    31     2     7    1
    32     2     3    1
    33    20    19    1
    34     7     9   am
    35     4     3    1
    36     4     5    1
    37    19    18    1
    38    19    21    1
    39    18    17    1
    40    17    15   am
    41     9    10    1
    42    15    10    1
    43    15    16    2
    44    10    11    1
    45    21    22    1
    46    13    12   ar
    47    11    12    1
    48    12    14   ar
