@<TRIPOS>MOLECULE
104865
 68 71 0 0 0
SMALL
GASTEIGER

@<TRIPOS>ATOM
      1 S          -6.2914    4.7449    0.3104 S.O2    1  LIG11       0.0736
      2 O          -4.9429    4.7373    0.8419 O.2     1  LIG11      -0.1499
      3 O          -7.3755    5.3729    1.0351 O.2     1  LIG11      -0.1499
      4 O          -8.8374    2.7895    1.7262 O.3     1  LIG11      -0.4435
      5 O         -11.3757    2.1970    0.5121 O.3     1  LIG11      -0.4715
      6 O          -9.4547    1.4275    3.9531 O.3     1  LIG11      -0.4914
      7 O         -14.0111    0.8292    0.8257 O.3     1  LIG11      -0.3917
      8 N          -6.6805    3.1437   -0.0620 N.pl3   1  LIG11      -0.1963
      9 N          -8.1000    2.9064   -1.8298 N.ar    1  LIG11      -0.2044
     10 N         -10.4281    2.4748   -1.5920 N.ar    1  LIG11      -0.1866
     11 N         -10.6095    2.2092   -4.3722 N.ar    1  LIG11      -0.2331
     12 N          -8.5274    3.3649   -4.5526 N.ar    1  LIG11      -0.2331
     13 C          -5.9148    7.5103   -5.1588 C.3     1  LIG11      -0.0127
     14 C          -6.0391    6.8106   -3.7931 C.ar    1  LIG11      -0.0419
     15 C          -4.8523    8.6260   -5.0678 C.3     1  LIG11      -0.0560
     16 C          -5.4873    6.4911   -6.2371 C.3     1  LIG11      -0.0560
     17 C          -7.2284    8.1620   -5.6470 C.3     1  LIG11      -0.0560
     18 C          -4.9364    6.1175   -3.2514 C.ar    1  LIG11      -0.0562
     19 C          -7.2210    6.8454   -3.0316 C.ar    1  LIG11      -0.0562
     20 C          -6.2038    5.5168   -1.2911 C.ar    1  LIG11       0.1086
     21 C          -5.0114    5.4777   -2.0112 C.ar    1  LIG11      -0.0348
     22 C          -7.3048    6.2126   -1.7873 C.ar    1  LIG11      -0.0348
     23 C          -8.0164    2.9265   -0.4929 C.ar    1  LIG11       0.1883
     24 C          -9.0762    2.7754    0.3790 C.ar    1  LIG11       0.2307
     25 C         -10.2786    2.5224   -0.2516 C.ar    1  LIG11       0.2642
     26 C          -9.3294    2.6958   -2.3456 C.ar    1  LIG11       0.2027
     27 C          -9.7957    3.3207    2.5632 C.ar    1  LIG11       0.1702
     28 C          -9.4919    2.7485   -3.8277 C.ar    1  LIG11       0.1978
     29 C         -12.6316    2.6234   -0.0316 C.3     1  LIG11       0.1143
     30 C         -10.1128    2.6098    3.7273 C.ar    1  LIG11       0.1621
     31 C         -10.3983    4.5601    2.3147 C.ar    1  LIG11      -0.0157
     32 C         -11.1162    3.0866    4.5758 C.ar    1  LIG11      -0.0163
     33 C         -13.4833    1.4045   -0.3701 C.3     1  LIG11       0.0783
     34 C         -11.3855    5.0402    3.1755 C.ar    1  LIG11      -0.0581
     35 C         -11.7549    4.2968    4.2954 C.ar    1  LIG11      -0.0581
     36 C         -10.7383    2.3002   -5.7086 C.ar    1  LIG11       0.0315
     37 C          -8.7182    3.4360   -5.8824 C.ar    1  LIG11       0.0315
     38 C          -9.8164    2.9141   -6.5209 C.ar    1  LIG11      -0.0254
     39 C          -9.0219    1.2703    5.3018 C.3     1  LIG11       0.0790
     40 H         -14.3828   -0.0361    0.5865 H       1  LIG11       0.2095
     41 H          -6.0425    2.8005   -0.7779 H       1  LIG11       0.1754
     42 H          -3.8591    8.2314   -4.8263 H       1  LIG11       0.0238
     43 H          -4.7624    9.1646   -6.0183 H       1  LIG11       0.0238
     44 H          -5.1127    9.3570   -4.2932 H       1  LIG11       0.0238
     45 H          -4.4981    6.0649   -6.0386 H       1  LIG11       0.0238
     46 H          -6.1979    5.6595   -6.2964 H       1  LIG11       0.0238
     47 H          -5.4393    6.9595   -7.2272 H       1  LIG11       0.0238
     48 H          -7.5697    8.9466   -4.9615 H       1  LIG11       0.0238
     49 H          -7.0958    8.6315   -6.6291 H       1  LIG11       0.0238
     50 H          -8.0315    7.4224   -5.7476 H       1  LIG11       0.0238
     51 H          -3.9918    6.0756   -3.7905 H       1  LIG11       0.0621
     52 H          -8.1068    7.3685   -3.3822 H       1  LIG11       0.0621
     53 H          -4.1359    4.9666   -1.6172 H       1  LIG11       0.0637
     54 H          -8.2314    6.2675   -1.2205 H       1  LIG11       0.0637
     55 H         -13.1238    3.2140    0.7495 H       1  LIG11       0.0720
     56 H         -12.5266    3.2755   -0.9065 H       1  LIG11       0.0720
     57 H         -10.1078    5.1543    1.4537 H       1  LIG11       0.0655
     58 H         -11.4266    2.5181    5.4464 H       1  LIG11       0.0655
     59 H         -12.8932    0.6416   -0.8869 H       1  LIG11       0.0591
     60 H         -14.3330    1.6977   -0.9936 H       1  LIG11       0.0591
     61 H         -11.8698    5.9909    2.9687 H       1  LIG11       0.0619
     62 H         -12.5392    4.6603    4.9540 H       1  LIG11       0.0619
     63 H         -11.6379    1.8509   -6.1192 H       1  LIG11       0.0831
     64 H          -7.9348    3.9432   -6.4369 H       1  LIG11       0.0831
     65 H          -9.9458    2.9814   -7.5919 H       1  LIG11       0.0648
     66 H          -8.2187    0.5269    5.3111 H       1  LIG11       0.0660
     67 H          -8.6185    2.2017    5.7163 H       1  LIG11       0.0660
     68 H          -9.8373    0.8904    5.9248 H       1  LIG11       0.0660
@<TRIPOS>BOND
     1     1     2    2
     2     1     3    2
     3     1     8    1
     4     1    20    1
     5     4    24    1
     6     4    27    1
     7     5    25    1
     8     5    29    1
     9     6    30    1
    10     6    39    1
    11     7    33    1
    12     8    23    1
    13     9    23   ar
    14     9    26   ar
    15    10    25   ar
    16    10    26   ar
    17    11    28   ar
    18    11    36   ar
    19    12    28   ar
    20    12    37   ar
    21    13    14    1
    22    13    15    1
    23    13    16    1
    24    13    17    1
    25    14    18   ar
    26    14    19   ar
    27    18    21   ar
    28    19    22   ar
    29    20    21   ar
    30    20    22   ar
    31    23    24   ar
    32    24    25   ar
    33    26    28    1
    34    27    30   ar
    35    27    31   ar
    36    29    33    1
    37    30    32   ar
    38    31    34   ar
    39    32    35   ar
    40    34    35   ar
    41    36    38   ar
    42    37    38   ar
    43     7    40    1
    44     8    41    1
    45    15    42    1
    46    15    43    1
    47    15    44    1
    48    16    45    1
    49    16    46    1
    50    16    47    1
    51    17    48    1
    52    17    49    1
    53    17    50    1
    54    18    51    1
    55    19    52    1
    56    21    53    1
    57    22    54    1
    58    29    55    1
    59    29    56    1
    60    31    57    1
    61    32    58    1
    62    33    59    1
    63    33    60    1
    64    34    61    1
    65    35    62    1
    66    36    63    1
    67    37    64    1
    68    38    65    1
    69    39    66    1
    70    39    67    1
    71    39    68    1
@<TRIPOS>MOLECULE
../1EDN/3STEPMIN_17-21.pdb
 47 48 0 0 0
SMALL
GASTEIGER

@<TRIPOS>ATOM
      1  N         -5.4290    0.8830   -1.1740 N.3    17  LEU17      -0.1231
      2  CA        -6.8230    0.6710   -0.7980 C.3    17  LEU17       0.1693
      3  CB        -6.9230   -0.4370    0.2770 C.3    17  LEU17       0.0284
      4  CG        -6.4950   -1.8450   -0.1910 C.3    17  LEU17       0.0019
      5  CD1       -6.5150   -2.8060    0.9980 C.3    17  LEU17       0.0001
      6  CD2       -7.4310   -2.4140   -1.2600 C.3    17  LEU17       0.0001
      7  C         -7.3990    2.0370   -0.3760 C.2    17  LEU17       0.2592
      8  O         -7.4670    2.9330   -1.2040 O.2    17  LEU17      -0.2718
      9  N         -7.7380    2.2560    0.8970 N.am   18  ASP18      -0.1960
     10  CA        -8.5130    3.4280    1.3730 C.3    18  ASP18       0.1840
     11  CB        -9.0510    3.1310    2.7840 C.3    18  ASP18       0.1450
     12  CG       -10.5470    3.4340    2.8500 C.2    18  ASP18       0.3671
     13  OD1      -11.3300    2.4930    2.5610 O.co2  18  ASP18      -0.2456
     14  OD2      -10.9050    4.5930    3.1470 O.co2  18  ASP18      -0.2456
     15  C         -7.8270    4.8120    1.2910 C.2    18  ASP18       0.2622
     16  O         -8.3890    5.8210    1.7350 O.2    18  ASP18      -0.2715
     17  N         -6.6250    4.8510    0.7010 N.am   19  ILE19      -0.1963
     18  CA        -5.9180    6.0210    0.1680 C.3    19  ILE19       0.1727
     19  CB        -4.3960    5.7260    0.0740 C.3    19  ILE19       0.0290
     20  CG2       -3.6150    6.9530   -0.4300 C.3    19  ILE19       0.0023
     21  CG1       -3.7730    5.2100    1.3920 C.3    19  ILE19       0.0022
     22  CD1       -3.8620    6.1700    2.5820 C.3    19  ILE19       0.0001
     23  C         -6.4970    6.4050   -1.2110 C.2    19  ILE19       0.2616
     24  O         -7.0070    7.5130   -1.3720 O.2    19  ILE19      -0.2715
     25  N         -6.3950    5.4980   -2.1940 N.am   20  ILE20      -0.1963
     26  CA        -6.9990    5.5490   -3.5400 C.3    20  ILE20       0.1727
     27  CB        -6.0900    6.2460   -4.5940 C.3    20  ILE20       0.0290
     28  CG2       -6.7980    6.2490   -5.9680 C.3    20  ILE20       0.0023
     29  CG1       -5.7140    7.6970   -4.2070 C.3    20  ILE20       0.0022
     30  CD1       -4.7810    8.4150   -5.1910 C.3    20  ILE20       0.0001
     31  C         -7.3180    4.1070   -3.9880 C.2    20  ILE20       0.2617
     32  O         -6.4020    3.3070   -4.2100 O.2    20  ILE20      -0.2715
     33  N         -8.6100    3.8210   -4.1620 N.am   21  TRP21      -0.1938
     34  CA        -9.2240    2.5950   -4.7020 C.3    21  TRP21       0.2021
     35  CB        -9.7020    1.6830   -3.5450 C.3    21  TRP21       0.0612
     36  CG       -10.4970    2.2370   -2.3850 C.ar   21  TRP21       0.0007
     37  CD1      -10.6860    1.5470   -1.2340 C.ar   21  TRP21       0.0946
     38  NE1      -11.3350    2.3340   -0.3040 N.ar   21  TRP21      -0.2442
     39  CE2      -11.5720    3.5950   -0.7990 C.ar   21  TRP21       0.0810
     40  CZ2      -12.0950    4.7480   -0.2000 C.ar   21  TRP21       0.0191
     41  CH2      -12.2340    5.9130   -0.9670 C.ar   21  TRP21       0.0015
     42  CZ3      -11.8800    5.8920   -2.3260 C.ar   21  TRP21       0.0001
     43  CE3      -11.3480    4.7280   -2.9100 C.ar   21  TRP21       0.0012
     44  CD2      -11.1270    3.5500   -2.1550 C.ar   21  TRP21       0.0152
     45  C        -10.3230    2.8760   -5.7330 C.2    21  TRP21       0.3845
     46  O        -11.0800    1.9620   -6.0950 O.co2  21  TRP21      -0.2437
     47  OXT      -10.4270    4.0430   -6.2080 O.co2  21  TRP21      -0.2437
@<TRIPOS>BOND
     1    47    45   ar
     2    46    45   ar
     3    28    27    1
     4    45    34    1
     5    30    29    1
     6    34    33    1
     7    34    35    1
     8    27    29    1
     9    27    26    1
    10    32    31    2
    11    33    31   am
    12    31    26    1
    13    35    36    1
    14    26    25    1
    15    43    42   ar
    16    43    44   ar
    17    36    44   ar
    18    36    37   ar
    19    42    41   ar
    20    25    23   am
    21    44    39   ar
    22    24    23    2
    23     6     4    1
    24    37    38   ar
    25    23    18    1
    26     8     7    2
    27     1     2    1
    28    41    40   ar
    29    39    38   ar
    30    39    40   ar
    31     2     7    1
    32     2     3    1
    33    20    19    1
    34     7     9   am
    35     4     3    1
    36     4     5    1
    37    19    18    1
    38    19    21    1
    39    18    17    1
    40    17    15   am
    41     9    10    1
    42    15    10    1
    43    15    16    2
    44    10    11    1
    45    21    22    1
    46    13    12   ar
    47    11    12    1
    48    12    14   ar
