@<TRIPOS>MOLECULE
*****
 48 50 0 0 0
SMALL
GASTEIGER

@<TRIPOS>ATOM
      1 C          -6.6594    0.3642   -0.9114 C.ar    1  LIG11      -0.0615
      2 C          -6.4054   -0.2595    0.3045 C.ar    1  LIG11      -0.0617
      3 C          -6.7740    0.3698    1.4895 C.ar    1  LIG11      -0.0615
      4 C          -7.3995    1.6215    1.4606 C.ar    1  LIG11      -0.0576
      5 C          -7.6797    2.2704    0.2448 C.ar    1  LIG11      -0.0332
      6 C          -7.2890    1.6113   -0.9396 C.ar    1  LIG11      -0.0576
      7 C         -10.1375    4.6244   -1.5239 C.ar    1  LIG11      -0.0576
      8 C         -11.3054    4.5226   -2.2870 C.ar    1  LIG11      -0.0615
      9 C         -12.0625    3.3556   -2.2593 C.ar    1  LIG11      -0.0617
     10 C         -11.6573    2.2933   -1.4591 C.ar    1  LIG11      -0.0615
     11 C         -10.4929    2.3973   -0.6928 C.ar    1  LIG11      -0.0576
     12 N          -6.7396    5.3964   -3.7894 N.ar    1  LIG11      -0.2002
     13 C          -6.6623    5.5831   -2.4589 C.ar    1  LIG11       0.3190
     14 N          -6.3307    6.7358   -1.8642 N.ar    1  LIG11      -0.2002
     15 C          -5.9693    7.7510   -2.6669 C.ar    1  LIG11       0.0453
     16 C          -6.0065    7.6543   -4.0451 C.ar    1  LIG11      -0.0193
     17 C          -6.4114    6.4421   -4.5672 C.ar    1  LIG11       0.0453
     18 C          -6.5293    6.2319   -6.0446 C.3     1  LIG11      -0.0221
     19 C          -5.5084    9.0143   -2.0060 C.3     1  LIG11      -0.0221
     20 O          -7.0333    4.4927   -1.7171 O.3     1  LIG11      -0.4519
     21 C          -7.3881    4.7640   -0.3389 C.3     1  LIG11       0.1554
     22 C          -8.3920    3.6567    0.1688 C.3     1  LIG11       0.0601
     23 C          -6.1203    4.8982    0.5546 C.2     1  LIG11       0.0833
     24 O          -5.0605    4.3331    0.1612 O.co2   1  LIG11      -0.5460
     25 O          -6.2925    5.5897    1.6086 O.co2   1  LIG11      -0.5460
     26 C          -9.6892    3.5572   -0.7243 C.ar    1  LIG11      -0.0332
     27 C          -8.9659    4.1016    1.5476 C.3     1  LIG11      -0.0477
     28 H          -6.3520   -0.1004   -1.8425 H       1  LIG11       0.0618
     29 H          -5.8992   -1.2188    0.3299 H       1  LIG11       0.0618
     30 H          -6.5537   -0.0967    2.4447 H       1  LIG11       0.0618
     31 H          -7.6360    2.0856    2.4128 H       1  LIG11       0.0621
     32 H          -7.4639    2.0804   -1.9058 H       1  LIG11       0.0621
     33 H          -9.5865    5.5594   -1.5748 H       1  LIG11       0.0621
     34 H         -11.6154    5.3612   -2.9042 H       1  LIG11       0.0618
     35 H         -12.9643    3.2770   -2.8583 H       1  LIG11       0.0618
     36 H         -12.2416    1.3792   -1.4274 H       1  LIG11       0.0618
     37 H         -10.2082    1.5521   -0.0702 H       1  LIG11       0.0621
     38 H          -5.7273    8.4857   -4.6773 H       1  LIG11       0.0653
     39 H          -6.1623    7.0952   -6.6097 H       1  LIG11       0.0293
     40 H          -7.5784    6.0681   -6.3123 H       1  LIG11       0.0293
     41 H          -5.9464    5.3552   -6.3462 H       1  LIG11       0.0293
     42 H          -5.5144    8.9104   -0.9166 H       1  LIG11       0.0293
     43 H          -6.1677    9.8447   -2.2749 H       1  LIG11       0.0293
     44 H          -4.4871    9.2513   -2.3182 H       1  LIG11       0.0293
     45 H          -7.9042    5.7331   -0.2835 H       1  LIG11       0.0810
     46 H          -8.1977    4.1968    2.3201 H       1  LIG11       0.0243
     47 H          -9.7086    3.3889    1.9297 H       1  LIG11       0.0243
     48 H          -9.4677    5.0748    1.4729 H       1  LIG11       0.0243
@<TRIPOS>BOND
     1     1     2   ar
     2     2     3   ar
     3     3     4   ar
     4     4     5   ar
     5     5     6   ar
     6     5    22    1
     7     6     1   ar
     8     7     8   ar
     9     8     9   ar
    10     9    10   ar
    11    10    11   ar
    12    11    26   ar
    13    12    13   ar
    14    13    14   ar
    15    14    15   ar
    16    15    16   ar
    17    15    19    1
    18    16    17   ar
    19    17    12   ar
    20    17    18    1
    21    20    21    1
    22    20    13    1
    23    21    23    1
    24    21    22    1
    25    22    27    1
    26    22    26    1
    27    23    25   ar
    28    23    24   ar
    29    26     7   ar
    30     1    28    1
    31     2    29    1
    32     3    30    1
    33     4    31    1
    34     6    32    1
    35     7    33    1
    36     8    34    1
    37     9    35    1
    38    10    36    1
    39    11    37    1
    40    16    38    1
    41    18    39    1
    42    18    40    1
    43    18    41    1
    44    19    42    1
    45    19    43    1
    46    19    44    1
    47    21    45    1
    48    27    46    1
    49    27    47    1
    50    27    48    1
@<TRIPOS>MOLECULE
../1EDN/3STEPMIN_17-21.pdb
 47 48 0 0 0
SMALL
GASTEIGER

@<TRIPOS>ATOM
      1  N         -5.4290    0.8830   -1.1740 N.3    17  LEU17      -0.1231
      2  CA        -6.8230    0.6710   -0.7980 C.3    17  LEU17       0.1693
      3  CB        -6.9230   -0.4370    0.2770 C.3    17  LEU17       0.0284
      4  CG        -6.4950   -1.8450   -0.1910 C.3    17  LEU17       0.0019
      5  CD1       -6.5150   -2.8060    0.9980 C.3    17  LEU17       0.0001
      6  CD2       -7.4310   -2.4140   -1.2600 C.3    17  LEU17       0.0001
      7  C         -7.3990    2.0370   -0.3760 C.2    17  LEU17       0.2592
      8  O         -7.4670    2.9330   -1.2040 O.2    17  LEU17      -0.2718
      9  N         -7.7380    2.2560    0.8970 N.am   18  ASP18      -0.1960
     10  CA        -8.5130    3.4280    1.3730 C.3    18  ASP18       0.1840
     11  CB        -9.0510    3.1310    2.7840 C.3    18  ASP18       0.1450
     12  CG       -10.5470    3.4340    2.8500 C.2    18  ASP18       0.3671
     13  OD1      -11.3300    2.4930    2.5610 O.co2  18  ASP18      -0.2456
     14  OD2      -10.9050    4.5930    3.1470 O.co2  18  ASP18      -0.2456
     15  C         -7.8270    4.8120    1.2910 C.2    18  ASP18       0.2622
     16  O         -8.3890    5.8210    1.7350 O.2    18  ASP18      -0.2715
     17  N         -6.6250    4.8510    0.7010 N.am   19  ILE19      -0.1963
     18  CA        -5.9180    6.0210    0.1680 C.3    19  ILE19       0.1727
     19  CB        -4.3960    5.7260    0.0740 C.3    19  ILE19       0.0290
     20  CG2       -3.6150    6.9530   -0.4300 C.3    19  ILE19       0.0023
     21  CG1       -3.7730    5.2100    1.3920 C.3    19  ILE19       0.0022
     22  CD1       -3.8620    6.1700    2.5820 C.3    19  ILE19       0.0001
     23  C         -6.4970    6.4050   -1.2110 C.2    19  ILE19       0.2616
     24  O         -7.0070    7.5130   -1.3720 O.2    19  ILE19      -0.2715
     25  N         -6.3950    5.4980   -2.1940 N.am   20  ILE20      -0.1963
     26  CA        -6.9990    5.5490   -3.5400 C.3    20  ILE20       0.1727
     27  CB        -6.0900    6.2460   -4.5940 C.3    20  ILE20       0.0290
     28  CG2       -6.7980    6.2490   -5.9680 C.3    20  ILE20       0.0023
     29  CG1       -5.7140    7.6970   -4.2070 C.3    20  ILE20       0.0022
     30  CD1       -4.7810    8.4150   -5.1910 C.3    20  ILE20       0.0001
     31  C         -7.3180    4.1070   -3.9880 C.2    20  ILE20       0.2617
     32  O         -6.4020    3.3070   -4.2100 O.2    20  ILE20      -0.2715
     33  N         -8.6100    3.8210   -4.1620 N.am   21  TRP21      -0.1938
     34  CA        -9.2240    2.5950   -4.7020 C.3    21  TRP21       0.2021
     35  CB        -9.7020    1.6830   -3.5450 C.3    21  TRP21       0.0612
     36  CG       -10.4970    2.2370   -2.3850 C.ar   21  TRP21       0.0007
     37  CD1      -10.6860    1.5470   -1.2340 C.ar   21  TRP21       0.0946
     38  NE1      -11.3350    2.3340   -0.3040 N.ar   21  TRP21      -0.2442
     39  CE2      -11.5720    3.5950   -0.7990 C.ar   21  TRP21       0.0810
     40  CZ2      -12.0950    4.7480   -0.2000 C.ar   21  TRP21       0.0191
     41  CH2      -12.2340    5.9130   -0.9670 C.ar   21  TRP21       0.0015
     42  CZ3      -11.8800    5.8920   -2.3260 C.ar   21  TRP21       0.0001
     43  CE3      -11.3480    4.7280   -2.9100 C.ar   21  TRP21       0.0012
     44  CD2      -11.1270    3.5500   -2.1550 C.ar   21  TRP21       0.0152
     45  C        -10.3230    2.8760   -5.7330 C.2    21  TRP21       0.3845
     46  O        -11.0800    1.9620   -6.0950 O.co2  21  TRP21      -0.2437
     47  OXT      -10.4270    4.0430   -6.2080 O.co2  21  TRP21      -0.2437
@<TRIPOS>BOND
     1    47    45   ar
     2    46    45   ar
     3    28    27    1
     4    45    34    1
     5    30    29    1
     6    34    33    1
     7    34    35    1
     8    27    29    1
     9    27    26    1
    10    32    31    2
    11    33    31   am
    12    31    26    1
    13    35    36    1
    14    26    25    1
    15    43    42   ar
    16    43    44   ar
    17    36    44   ar
    18    36    37   ar
    19    42    41   ar
    20    25    23   am
    21    44    39   ar
    22    24    23    2
    23     6     4    1
    24    37    38   ar
    25    23    18    1
    26     8     7    2
    27     1     2    1
    28    41    40   ar
    29    39    38   ar
    30    39    40   ar
    31     2     7    1
    32     2     3    1
    33    20    19    1
    34     7     9   am
    35     4     3    1
    36     4     5    1
    37    19    18    1
    38    19    21    1
    39    18    17    1
    40    17    15   am
    41     9    10    1
    42    15    10    1
    43    15    16    2
    44    10    11    1
    45    21    22    1
    46    13    12   ar
    47    11    12    1
    48    12    14   ar
