@<TRIPOS>MOLECULE
9911482
 51 53 0 0 0
SMALL
GASTEIGER

@<TRIPOS>ATOM
      1 S          -9.2299    3.2482    1.6637 S.O2    1  LIG11       0.0758
      2 S          -6.4305    1.0964   -0.7171 S.2     1  LIG11      -0.0902
      3 O         -10.8063    1.9800   -0.9621 O.2     1  LIG11      -0.3377
      4 O          -8.7946    4.5753    1.2924 O.2     1  LIG11      -0.1499
      5 O          -9.1434    2.8334    3.0528 O.2     1  LIG11      -0.1499
      6 O          -8.5220    4.1087   -1.5385 O.2     1  LIG11      -0.2692
      7 O          -4.4492    5.2135    0.0011 O.2     1  LIG11      -0.2923
      8 N          -6.2231    4.0722   -1.5107 N.am    1  LIG11      -0.2802
      9 N         -10.8552    3.0725    1.2343 N.pl3   1  LIG11      -0.1831
     10 N         -11.1427    2.2762   -2.2701 N.ar    1  LIG11      -0.0810
     11 C          -6.0474    5.1792   -2.3777 C.ar    1  LIG11       0.0471
     12 C          -8.1806    2.1422    0.8435 C.ar    1  LIG11       0.1277
     13 C          -6.5971    5.1816   -3.6782 C.ar    1  LIG11      -0.0283
     14 C          -5.2777    6.2810   -1.9430 C.ar    1  LIG11       0.0388
     15 C          -7.4452    2.4206   -0.2950 C.ar    1  LIG11       0.1007
     16 C          -5.7079    7.4300   -4.0488 C.ar    1  LIG11      -0.0494
     17 C          -6.4406    6.3229   -4.4854 C.ar    1  LIG11      -0.0541
     18 C          -5.1253    7.4001   -2.7783 C.ar    1  LIG11      -0.0466
     19 C          -7.4738    3.5866   -1.1637 C.2     1  LIG11       0.2568
     20 C         -11.0641    3.0530   -0.1689 C.ar    1  LIG11       0.2399
     21 C          -7.9273    0.8223    1.3418 C.ar    1  LIG11      -0.0273
     22 C         -11.5833    4.0774   -0.9297 C.ar    1  LIG11       0.0350
     23 C          -7.3132    4.0062   -4.2931 C.3     1  LIG11      -0.0379
     24 C          -4.6498    6.2806   -0.5832 C.2     1  LIG11       0.1619
     25 C         -11.5636    3.5470   -2.2510 C.ar    1  LIG11       0.0854
     26 C          -6.9956    0.1500    0.5855 C.ar    1  LIG11      -0.0217
     27 C          -5.5695    8.6463   -4.9171 C.3     1  LIG11      -0.0397
     28 C         -11.9536    5.4532   -0.5266 C.3     1  LIG11      -0.0330
     29 C         -11.8973    4.2445   -3.5151 C.3     1  LIG11      -0.0188
     30 C          -4.2546    7.5918    0.0451 C.3     1  LIG11      -0.0013
     31 H          -5.5312    3.9879   -0.7612 H       1  LIG11       0.1552
     32 H         -11.3514    3.8296    1.6980 H       1  LIG11       0.1768
     33 H          -6.8843    6.3321   -5.4810 H       1  LIG11       0.0623
     34 H          -4.5477    8.2632   -2.4562 H       1  LIG11       0.0628
     35 H          -8.3898    0.4007    2.2277 H       1  LIG11       0.0643
     36 H          -7.1544    3.0745   -3.7428 H       1  LIG11       0.0278
     37 H          -6.9286    3.8259   -5.3031 H       1  LIG11       0.0278
     38 H          -8.3863    4.2058   -4.3550 H       1  LIG11       0.0278
     39 H          -6.6123   -0.8495    0.7409 H       1  LIG11       0.0694
     40 H          -5.8423    8.4291   -5.9553 H       1  LIG11       0.0278
     41 H          -4.5332    8.9997   -4.9182 H       1  LIG11       0.0278
     42 H          -6.2214    9.4445   -4.5489 H       1  LIG11       0.0278
     43 H         -12.0344    5.5568    0.5594 H       1  LIG11       0.0280
     44 H         -12.9189    5.7353   -0.9581 H       1  LIG11       0.0280
     45 H         -11.1984    6.1642   -0.8761 H       1  LIG11       0.0280
     46 H         -11.8581    3.5673   -4.3747 H       1  LIG11       0.0294
     47 H         -11.1858    5.0574   -3.6942 H       1  LIG11       0.0294
     48 H         -12.9021    4.6722   -3.4651 H       1  LIG11       0.0294
     49 H          -4.1184    7.4473    1.1207 H       1  LIG11       0.0309
     50 H          -5.0432    8.3381   -0.0870 H       1  LIG11       0.0309
     51 H          -3.3134    7.9423   -0.3855 H       1  LIG11       0.0309
@<TRIPOS>BOND
     1     1     4    2
     2     1     5    2
     3     1     9    1
     4     1    12    1
     5     2    15   ar
     6     2    26   ar
     7     3    10   ar
     8     3    20   ar
     9     6    19    2
    10     7    24    2
    11     8    11    1
    12     8    19   am
    13     9    20    1
    14    10    25   ar
    15    11    13   ar
    16    11    14   ar
    17    12    15   ar
    18    12    21   ar
    19    13    17   ar
    20    13    23    1
    21    14    18   ar
    22    14    24    1
    23    15    19    1
    24    16    17   ar
    25    16    18   ar
    26    16    27    1
    27    20    22   ar
    28    21    26   ar
    29    22    25   ar
    30    22    28    1
    31    24    30    1
    32    25    29    1
    33     8    31    1
    34     9    32    1
    35    17    33    1
    36    18    34    1
    37    21    35    1
    38    23    36    1
    39    23    37    1
    40    23    38    1
    41    26    39    1
    42    27    40    1
    43    27    41    1
    44    27    42    1
    45    28    43    1
    46    28    44    1
    47    28    45    1
    48    29    46    1
    49    29    47    1
    50    29    48    1
    51    30    49    1
    52    30    50    1
    53    30    51    1
@<TRIPOS>MOLECULE
../1EDN/3STEPMIN_17-21.pdb
 47 48 0 0 0
SMALL
GASTEIGER

@<TRIPOS>ATOM
      1  N         -5.4290    0.8830   -1.1740 N.3    17  LEU17      -0.1231
      2  CA        -6.8230    0.6710   -0.7980 C.3    17  LEU17       0.1693
      3  CB        -6.9230   -0.4370    0.2770 C.3    17  LEU17       0.0284
      4  CG        -6.4950   -1.8450   -0.1910 C.3    17  LEU17       0.0019
      5  CD1       -6.5150   -2.8060    0.9980 C.3    17  LEU17       0.0001
      6  CD2       -7.4310   -2.4140   -1.2600 C.3    17  LEU17       0.0001
      7  C         -7.3990    2.0370   -0.3760 C.2    17  LEU17       0.2592
      8  O         -7.4670    2.9330   -1.2040 O.2    17  LEU17      -0.2718
      9  N         -7.7380    2.2560    0.8970 N.am   18  ASP18      -0.1960
     10  CA        -8.5130    3.4280    1.3730 C.3    18  ASP18       0.1840
     11  CB        -9.0510    3.1310    2.7840 C.3    18  ASP18       0.1450
     12  CG       -10.5470    3.4340    2.8500 C.2    18  ASP18       0.3671
     13  OD1      -11.3300    2.4930    2.5610 O.co2  18  ASP18      -0.2456
     14  OD2      -10.9050    4.5930    3.1470 O.co2  18  ASP18      -0.2456
     15  C         -7.8270    4.8120    1.2910 C.2    18  ASP18       0.2622
     16  O         -8.3890    5.8210    1.7350 O.2    18  ASP18      -0.2715
     17  N         -6.6250    4.8510    0.7010 N.am   19  ILE19      -0.1963
     18  CA        -5.9180    6.0210    0.1680 C.3    19  ILE19       0.1727
     19  CB        -4.3960    5.7260    0.0740 C.3    19  ILE19       0.0290
     20  CG2       -3.6150    6.9530   -0.4300 C.3    19  ILE19       0.0023
     21  CG1       -3.7730    5.2100    1.3920 C.3    19  ILE19       0.0022
     22  CD1       -3.8620    6.1700    2.5820 C.3    19  ILE19       0.0001
     23  C         -6.4970    6.4050   -1.2110 C.2    19  ILE19       0.2616
     24  O         -7.0070    7.5130   -1.3720 O.2    19  ILE19      -0.2715
     25  N         -6.3950    5.4980   -2.1940 N.am   20  ILE20      -0.1963
     26  CA        -6.9990    5.5490   -3.5400 C.3    20  ILE20       0.1727
     27  CB        -6.0900    6.2460   -4.5940 C.3    20  ILE20       0.0290
     28  CG2       -6.7980    6.2490   -5.9680 C.3    20  ILE20       0.0023
     29  CG1       -5.7140    7.6970   -4.2070 C.3    20  ILE20       0.0022
     30  CD1       -4.7810    8.4150   -5.1910 C.3    20  ILE20       0.0001
     31  C         -7.3180    4.1070   -3.9880 C.2    20  ILE20       0.2617
     32  O         -6.4020    3.3070   -4.2100 O.2    20  ILE20      -0.2715
     33  N         -8.6100    3.8210   -4.1620 N.am   21  TRP21      -0.1938
     34  CA        -9.2240    2.5950   -4.7020 C.3    21  TRP21       0.2021
     35  CB        -9.7020    1.6830   -3.5450 C.3    21  TRP21       0.0612
     36  CG       -10.4970    2.2370   -2.3850 C.ar   21  TRP21       0.0007
     37  CD1      -10.6860    1.5470   -1.2340 C.ar   21  TRP21       0.0946
     38  NE1      -11.3350    2.3340   -0.3040 N.ar   21  TRP21      -0.2442
     39  CE2      -11.5720    3.5950   -0.7990 C.ar   21  TRP21       0.0810
     40  CZ2      -12.0950    4.7480   -0.2000 C.ar   21  TRP21       0.0191
     41  CH2      -12.2340    5.9130   -0.9670 C.ar   21  TRP21       0.0015
     42  CZ3      -11.8800    5.8920   -2.3260 C.ar   21  TRP21       0.0001
     43  CE3      -11.3480    4.7280   -2.9100 C.ar   21  TRP21       0.0012
     44  CD2      -11.1270    3.5500   -2.1550 C.ar   21  TRP21       0.0152
     45  C        -10.3230    2.8760   -5.7330 C.2    21  TRP21       0.3845
     46  O        -11.0800    1.9620   -6.0950 O.co2  21  TRP21      -0.2437
     47  OXT      -10.4270    4.0430   -6.2080 O.co2  21  TRP21      -0.2437
@<TRIPOS>BOND
     1    47    45   ar
     2    46    45   ar
     3    28    27    1
     4    45    34    1
     5    30    29    1
     6    34    33    1
     7    34    35    1
     8    27    29    1
     9    27    26    1
    10    32    31    2
    11    33    31   am
    12    31    26    1
    13    35    36    1
    14    26    25    1
    15    43    42   ar
    16    43    44   ar
    17    36    44   ar
    18    36    37   ar
    19    42    41   ar
    20    25    23   am
    21    44    39   ar
    22    24    23    2
    23     6     4    1
    24    37    38   ar
    25    23    18    1
    26     8     7    2
    27     1     2    1
    28    41    40   ar
    29    39    38   ar
    30    39    40   ar
    31     2     7    1
    32     2     3    1
    33    20    19    1
    34     7     9   am
    35     4     3    1
    36     4     5    1
    37    19    18    1
    38    19    21    1
    39    18    17    1
    40    17    15   am
    41     9    10    1
    42    15    10    1
    43    15    16    2
    44    10    11    1
    45    21    22    1
    46    13    12   ar
    47    11    12    1
    48    12    14   ar
