@<TRIPOS>MOLECULE
6918493
 49 51 0 0 0
SMALL
GASTEIGER

@<TRIPOS>ATOM
      1 O          -5.7346    0.8506    0.6124 O.3     1  LIG11      -0.3632
      2 O          -8.0543    3.0328   -1.4456 O.3     1  LIG11      -0.4495
      3 O          -8.5298    0.4417   -2.1646 O.co2   1  LIG11      -0.5459
      4 O          -6.2992    0.1341   -2.4515 O.co2   1  LIG11      -0.5459
      5 N          -9.1788    3.9727   -3.2199 N.ar    1  LIG11      -0.2002
      6 N          -6.7995    3.8869   -3.2248 N.ar    1  LIG11      -0.2002
      7 C          -6.7943    1.8133    0.3175 C.3     1  LIG11       0.1609
      8 C          -7.0015    2.0490   -1.2158 C.3     1  LIG11       0.1791
      9 C          -8.0871    1.2332    0.9626 C.ar    1  LIG11      -0.0075
     10 C          -6.3480    3.0923    1.1132 C.ar    1  LIG11      -0.0075
     11 C          -8.2305   -0.1497    1.1812 C.ar    1  LIG11      -0.0554
     12 C          -6.1141    4.3412    0.5125 C.ar    1  LIG11      -0.0554
     13 C          -9.1598    2.0667    1.3340 C.ar    1  LIG11      -0.0554
     14 C          -6.1230    2.9938    2.5048 C.ar    1  LIG11      -0.0554
     15 C          -7.3137    0.7435   -1.9913 C.2     1  LIG11       0.0856
     16 C          -4.4636    1.0870    0.0256 C.3     1  LIG11       0.0382
     17 C          -9.3799   -0.6732    1.7790 C.ar    1  LIG11      -0.0614
     18 C          -5.7023    5.4447    1.2674 C.ar    1  LIG11      -0.0614
     19 C         -10.3068    1.5439    1.9379 C.ar    1  LIG11      -0.0614
     20 C          -5.7091    4.0948    3.2586 C.ar    1  LIG11      -0.0614
     21 C         -10.4140    0.1746    2.1655 C.ar    1  LIG11      -0.0617
     22 C          -5.5024    5.3227    2.6390 C.ar    1  LIG11      -0.0617
     23 C          -8.0030    3.5788   -2.7089 C.ar    1  LIG11       0.3191
     24 C          -9.1385    4.5880   -4.4154 C.ar    1  LIG11       0.0453
     25 C          -6.7903    4.5125   -4.4136 C.ar    1  LIG11       0.0453
     26 C          -7.9520    4.8826   -5.0598 C.ar    1  LIG11      -0.0193
     27 C         -10.4484    4.9604   -5.0386 C.3     1  LIG11      -0.0221
     28 C          -5.4526    4.8117   -5.0157 C.3     1  LIG11      -0.0221
     29 H          -6.0520    2.4293   -1.6125 H       1  LIG11       0.0834
     30 H          -7.4491   -0.8335    0.8542 H       1  LIG11       0.0621
     31 H          -6.2408    4.4864   -0.5559 H       1  LIG11       0.0621
     32 H          -9.1098    3.1361    1.1410 H       1  LIG11       0.0621
     33 H          -6.2724    2.0361    3.0021 H       1  LIG11       0.0621
     34 H          -3.7739    0.3348    0.4201 H       1  LIG11       0.0524
     35 H          -4.0666    2.0699    0.2918 H       1  LIG11       0.0524
     36 H          -4.4779    0.9753   -1.0582 H       1  LIG11       0.0524
     37 H          -9.4689   -1.7463    1.9159 H       1  LIG11       0.0618
     38 H          -5.5383    6.3982    0.7731 H       1  LIG11       0.0618
     39 H         -11.1211    2.2082    2.2093 H       1  LIG11       0.0618
     40 H          -5.5493    3.9859    4.3270 H       1  LIG11       0.0618
     41 H         -11.3121   -0.2350    2.6159 H       1  LIG11       0.0618
     42 H          -5.1823    6.1814    3.2208 H       1  LIG11       0.0618
     43 H          -7.9345    5.3800   -6.0199 H       1  LIG11       0.0653
     44 H         -11.2864    4.6209   -4.4215 H       1  LIG11       0.0293
     45 H         -10.5436    4.4962   -6.0253 H       1  LIG11       0.0293
     46 H         -10.5203    6.0473   -5.1449 H       1  LIG11       0.0293
     47 H          -4.6453    4.4268   -4.3838 H       1  LIG11       0.0293
     48 H          -5.3181    5.8932   -5.1165 H       1  LIG11       0.0293
     49 H          -5.3653    4.3443   -6.0011 H       1  LIG11       0.0293
@<TRIPOS>BOND
     1     1     7    1
     2     1    16    1
     3     2     8    1
     4     2    23    1
     5     3    15   ar
     6     4    15   ar
     7     5    23   ar
     8     5    24   ar
     9     6    23   ar
    10     6    25   ar
    11     7     8    1
    12     7     9    1
    13     7    10    1
    14     8    15    1
    15     9    11   ar
    16     9    13   ar
    17    10    12   ar
    18    10    14   ar
    19    11    17   ar
    20    12    18   ar
    21    13    19   ar
    22    14    20   ar
    23    17    21   ar
    24    18    22   ar
    25    19    21   ar
    26    20    22   ar
    27    24    26   ar
    28    24    27    1
    29    25    26   ar
    30    25    28    1
    31     8    29    1
    32    11    30    1
    33    12    31    1
    34    13    32    1
    35    14    33    1
    36    16    34    1
    37    16    35    1
    38    16    36    1
    39    17    37    1
    40    18    38    1
    41    19    39    1
    42    20    40    1
    43    21    41    1
    44    22    42    1
    45    26    43    1
    46    27    44    1
    47    27    45    1
    48    27    46    1
    49    28    47    1
    50    28    48    1
    51    28    49    1
@<TRIPOS>MOLECULE
../1EDN/PCA1_17-21.pdb
 47 48 0 0 0
SMALL
GASTEIGER

@<TRIPOS>ATOM
      1  N         -4.6470   -0.3680   -1.6750 N.3    17  LEU17      -0.1231
      2  CA        -5.8920   -0.8550   -2.2480 C.3    17  LEU17       0.1693
      3  CB        -6.0770   -2.3450   -1.7480 C.3    17  LEU17       0.0284
      4  CG        -7.4170   -3.0590   -2.1890 C.3    17  LEU17       0.0019
      5  CD1       -7.4920   -3.1930   -3.7220 C.3    17  LEU17       0.0001
      6  CD2       -7.5340   -4.4610   -1.6100 C.3    17  LEU17       0.0001
      7  C         -7.0080    0.1010   -1.8270 C.2    17  LEU17       0.2592
      8  O         -7.6220    0.6590   -2.7680 O.2    17  LEU17      -0.2718
      9  N         -7.2890    0.1920   -0.5460 N.am   18  ASP18      -0.1960
     10  CA        -8.2730    1.1070    0.1120 C.3    18  ASP18       0.1840
     11  CB        -8.8290    0.4520    1.4200 C.3    18  ASP18       0.1450
     12  CG        -9.9140    1.2760    2.0640 C.2    18  ASP18       0.3671
     13  OD1      -10.8560    1.7240    1.3430 O.co2  18  ASP18      -0.2456
     14  OD2       -9.7710    1.5960    3.2830 O.co2  18  ASP18      -0.2456
     15  C         -7.6270    2.4530    0.4740 C.2    18  ASP18       0.2622
     16  O         -8.0770    3.4620   -0.0480 O.2    18  ASP18      -0.2715
     17  N         -6.6010    2.4770    1.3340 N.am   19  ILE19      -0.1963
     18  CA        -6.1660    3.6270    2.0790 C.3    19  ILE19       0.1727
     19  CB        -5.0730    3.3500    3.1520 C.3    19  ILE19       0.0290
     20  CG2       -4.5850    4.5470    3.9530 C.3    19  ILE19       0.0023
     21  CG1       -5.6210    2.1420    3.9730 C.3    19  ILE19       0.0022
     22  CD1       -6.7460    2.5740    4.8760 C.3    19  ILE19       0.0001
     23  C         -5.6740    4.7260    1.1170 C.2    19  ILE19       0.2616
     24  O         -5.9640    5.8590    1.4260 O.2    19  ILE19      -0.2715
     25  N         -4.8940    4.3400    0.1060 N.am   20  ILE20      -0.1963
     26  CA        -4.3700    5.1770   -0.9560 C.3    20  ILE20       0.1727
     27  CB        -2.8480    5.4620   -0.8180 C.3    20  ILE20       0.0290
     28  CG2       -2.5210    6.1670    0.5290 C.3    20  ILE20       0.0023
     29  CG1       -1.9270    4.2500   -0.9510 C.3    20  ILE20       0.0022
     30  CD1       -0.4520    4.4090   -1.0350 C.3    20  ILE20       0.0001
     31  C         -4.8260    4.7960   -2.3980 C.2    20  ILE20       0.2617
     32  O         -4.8210    3.6210   -2.7490 O.2    20  ILE20      -0.2715
     33  N         -5.1950    5.7710   -3.1960 N.am   21  TRP21      -0.1941
     34  CA        -5.6960    5.8160   -4.5740 C.3    21  TRP21       0.1982
     35  CB        -7.1930    6.0870   -4.6010 C.3    21  TRP21       0.0394
     36  CG        -8.1480    4.9210   -4.3560 C.3    21  TRP21       0.0475
     37  CD1       -8.4270    4.3170   -3.1580 C.3    21  TRP21       0.1166
     38  NE1       -9.4680    3.4340   -3.3480 N.pl3  21  TRP21      -0.2376
     39  CE2      -10.0400    3.5420   -4.5600 C.ar   21  TRP21       0.0614
     40  CZ2      -11.2420    2.9770   -5.0990 C.ar   21  TRP21       0.0158
     41  CH2      -11.3060    3.0240   -6.5170 C.ar   21  TRP21       0.0013
     42  CZ3      -10.3640    3.7270   -7.2650 C.ar   21  TRP21      -0.0002
     43  CE3       -9.2810    4.3830   -6.7050 C.ar   21  TRP21      -0.0030
     44  CD2       -9.0950    4.3440   -5.3390 C.ar   21  TRP21      -0.0059
     45  C         -4.8510    6.8160   -5.3910 C.2    21  TRP21       0.3842
     46  O         -5.0400    8.0490   -5.1500 O.co2  21  TRP21      -0.2437
     47  OXT       -3.9720    6.3760   -6.1010 O.co2  21  TRP21      -0.2437
@<TRIPOS>BOND
     1    42    43   ar
     2    42    41   ar
     3    43    44   ar
     4    41    40   ar
     5    47    45   ar
     6    45    46   ar
     7    45    34    1
     8    44    39   ar
     9    44    36    1
    10    40    39   ar
    11    35    34    1
    12    35    36    1
    13    34    33    1
    14    39    38    1
    15    36    37    1
    16     5     4    1
    17    38    37    1
    18    33    31   am
    19     8     7    2
    20    32    31    2
    21    31    26    1
    22     2     7    1
    23     2     3    1
    24     2     1    1
    25     4     3    1
    26     4     6    1
    27     7     9   am
    28    30    29    1
    29    26    27    1
    30    26    25    1
    31    29    27    1
    32    27    28    1
    33     9    10    1
    34    16    15    2
    35    25    23   am
    36    10    15    1
    37    10    11    1
    38    15    17   am
    39    23    24    2
    40    23    18    1
    41    17    18    1
    42    13    12   ar
    43    11    12    1
    44    12    14   ar
    45    18    19    1
    46    19    20    1
    47    19    21    1
    48    21    22    1
