@<TRIPOS>MOLECULE
9910224
 46 49 0 0 0
SMALL
GASTEIGER

@<TRIPOS>ATOM
      1 S          -6.0032    4.7209    0.5475 S.O2    1  LIG11       0.0756
      2 O          -5.7131    5.2295    1.8724 O.2     1  LIG11      -0.1499
      3 O          -7.1889    5.1511   -0.1545 O.2     1  LIG11      -0.1499
      4 O          -5.8242    2.4866    3.3967 O.3     1  LIG11      -0.4773
      5 O         -10.0060    3.3159   -5.1204 O.2     1  LIG11      -0.4229
      6 N          -5.9161    3.0281    0.6607 N.pl3   1  LIG11      -0.1951
      7 N          -3.4344    5.2620   -2.5465 N.ar    1  LIG11      -0.2530
      8 N          -8.1174    2.2247    0.5878 N.ar    1  LIG11      -0.2325
      9 N          -8.0647    1.7092    3.3939 N.ar    1  LIG11      -0.2137
     10 N          -9.3370    4.8998   -6.5516 N.ar    1  LIG11      -0.1076
     11 N         -10.5464    4.4059   -6.9976 N.ar    1  LIG11      -0.1156
     12 C          -4.5757    5.0273   -0.4531 C.ar    1  LIG11       0.1344
     13 C          -4.5835    5.0035   -1.8464 C.ar    1  LIG11       0.0975
     14 C          -5.7286    4.7588   -2.7446 C.ar    1  LIG11       0.0023
     15 C          -3.3804    5.3433    0.2187 C.ar    1  LIG11      -0.0315
     16 C          -6.5465    3.6225   -2.6672 C.ar    1  LIG11      -0.0518
     17 C          -5.9994    5.6746   -3.7787 C.ar    1  LIG11      -0.0518
     18 C          -7.0400    2.4811    1.3501 C.ar    1  LIG11       0.2006
     19 C          -7.9124    4.3835   -4.5412 C.ar    1  LIG11       0.0385
     20 C          -7.6347    3.4476   -3.5372 C.ar    1  LIG11      -0.0488
     21 C          -7.0665    5.4902   -4.6651 C.ar    1  LIG11      -0.0488
     22 C          -2.2236    5.6064   -0.5022 C.ar    1  LIG11      -0.0417
     23 C          -2.2992    5.5497   -1.8757 C.ar    1  LIG11       0.0284
     24 C          -7.0129    2.2426    2.7314 C.ar    1  LIG11       0.2574
     25 C          -9.0439    4.2402   -5.4466 C.ar    1  LIG11       0.2480
     26 C          -9.1583    1.4493    2.6329 C.ar    1  LIG11       0.0602
     27 C          -9.1746    1.7093    1.2610 C.ar    1  LIG11       0.0510
     28 C         -10.3501    0.8451    3.3073 C.3     1  LIG11      -0.0208
     29 C          -5.9632    2.4149    4.8123 C.3     1  LIG11       0.0805
     30 C         -10.9031    3.4918   -6.1282 C.ar    1  LIG11       0.2047
     31 H          -5.0882    2.8191    1.2242 H       1  LIG11       0.1754
     32 H          -3.3440    5.3964    1.3060 H       1  LIG11       0.0638
     33 H          -6.3657    2.8533   -1.9210 H       1  LIG11       0.0624
     34 H          -5.3642    6.5512   -3.9027 H       1  LIG11       0.0624
     35 H          -8.2610    2.5667   -3.4114 H       1  LIG11       0.0625
     36 H          -7.2366    6.2289   -5.4467 H       1  LIG11       0.0625
     37 H          -1.2920    5.8544   -0.0046 H       1  LIG11       0.0633
     38 H          -1.4303    5.7451   -2.4984 H       1  LIG11       0.0830
     39 H         -10.0518    1.5010    0.6562 H       1  LIG11       0.0848
     40 H         -10.1771    0.7429    4.3836 H       1  LIG11       0.0293
     41 H         -11.2314    1.4770    3.1623 H       1  LIG11       0.0293
     42 H         -10.5490   -0.1507    2.8991 H       1  LIG11       0.0293
     43 H          -5.0068    2.7095    5.2552 H       1  LIG11       0.0660
     44 H          -6.7268    3.1115    5.1755 H       1  LIG11       0.0660
     45 H          -6.1778    1.3905    5.1354 H       1  LIG11       0.0660
     46 H         -11.7942    2.8835   -6.1130 H       1  LIG11       0.1272
@<TRIPOS>BOND
     1     1     2    2
     2     1     3    2
     3     1     6    1
     4     1    12    1
     5     4    24    1
     6     4    29    1
     7     5    25   ar
     8     5    30   ar
     9     6    18    1
    10     7    13   ar
    11     7    23   ar
    12     8    18   ar
    13     8    27   ar
    14     9    24   ar
    15     9    26   ar
    16    10    11   ar
    17    10    25   ar
    18    11    30   ar
    19    12    13   ar
    20    12    15   ar
    21    13    14    1
    22    14    16   ar
    23    14    17   ar
    24    15    22   ar
    25    16    20   ar
    26    17    21   ar
    27    18    24   ar
    28    19    20   ar
    29    19    21   ar
    30    19    25    1
    31    22    23   ar
    32    26    27   ar
    33    26    28    1
    34     6    31    1
    35    15    32    1
    36    16    33    1
    37    17    34    1
    38    20    35    1
    39    21    36    1
    40    22    37    1
    41    23    38    1
    42    27    39    1
    43    28    40    1
    44    28    41    1
    45    28    42    1
    46    29    43    1
    47    29    44    1
    48    29    45    1
    49    30    46    1
@<TRIPOS>MOLECULE
../1EDN/PCA1_17-21.pdb
 47 48 0 0 0
SMALL
GASTEIGER

@<TRIPOS>ATOM
      1  N         -4.6470   -0.3680   -1.6750 N.3    17  LEU17      -0.1231
      2  CA        -5.8920   -0.8550   -2.2480 C.3    17  LEU17       0.1693
      3  CB        -6.0770   -2.3450   -1.7480 C.3    17  LEU17       0.0284
      4  CG        -7.4170   -3.0590   -2.1890 C.3    17  LEU17       0.0019
      5  CD1       -7.4920   -3.1930   -3.7220 C.3    17  LEU17       0.0001
      6  CD2       -7.5340   -4.4610   -1.6100 C.3    17  LEU17       0.0001
      7  C         -7.0080    0.1010   -1.8270 C.2    17  LEU17       0.2592
      8  O         -7.6220    0.6590   -2.7680 O.2    17  LEU17      -0.2718
      9  N         -7.2890    0.1920   -0.5460 N.am   18  ASP18      -0.1960
     10  CA        -8.2730    1.1070    0.1120 C.3    18  ASP18       0.1840
     11  CB        -8.8290    0.4520    1.4200 C.3    18  ASP18       0.1450
     12  CG        -9.9140    1.2760    2.0640 C.2    18  ASP18       0.3671
     13  OD1      -10.8560    1.7240    1.3430 O.co2  18  ASP18      -0.2456
     14  OD2       -9.7710    1.5960    3.2830 O.co2  18  ASP18      -0.2456
     15  C         -7.6270    2.4530    0.4740 C.2    18  ASP18       0.2622
     16  O         -8.0770    3.4620   -0.0480 O.2    18  ASP18      -0.2715
     17  N         -6.6010    2.4770    1.3340 N.am   19  ILE19      -0.1963
     18  CA        -6.1660    3.6270    2.0790 C.3    19  ILE19       0.1727
     19  CB        -5.0730    3.3500    3.1520 C.3    19  ILE19       0.0290
     20  CG2       -4.5850    4.5470    3.9530 C.3    19  ILE19       0.0023
     21  CG1       -5.6210    2.1420    3.9730 C.3    19  ILE19       0.0022
     22  CD1       -6.7460    2.5740    4.8760 C.3    19  ILE19       0.0001
     23  C         -5.6740    4.7260    1.1170 C.2    19  ILE19       0.2616
     24  O         -5.9640    5.8590    1.4260 O.2    19  ILE19      -0.2715
     25  N         -4.8940    4.3400    0.1060 N.am   20  ILE20      -0.1963
     26  CA        -4.3700    5.1770   -0.9560 C.3    20  ILE20       0.1727
     27  CB        -2.8480    5.4620   -0.8180 C.3    20  ILE20       0.0290
     28  CG2       -2.5210    6.1670    0.5290 C.3    20  ILE20       0.0023
     29  CG1       -1.9270    4.2500   -0.9510 C.3    20  ILE20       0.0022
     30  CD1       -0.4520    4.4090   -1.0350 C.3    20  ILE20       0.0001
     31  C         -4.8260    4.7960   -2.3980 C.2    20  ILE20       0.2617
     32  O         -4.8210    3.6210   -2.7490 O.2    20  ILE20      -0.2715
     33  N         -5.1950    5.7710   -3.1960 N.am   21  TRP21      -0.1941
     34  CA        -5.6960    5.8160   -4.5740 C.3    21  TRP21       0.1982
     35  CB        -7.1930    6.0870   -4.6010 C.3    21  TRP21       0.0394
     36  CG        -8.1480    4.9210   -4.3560 C.3    21  TRP21       0.0475
     37  CD1       -8.4270    4.3170   -3.1580 C.3    21  TRP21       0.1166
     38  NE1       -9.4680    3.4340   -3.3480 N.pl3  21  TRP21      -0.2376
     39  CE2      -10.0400    3.5420   -4.5600 C.ar   21  TRP21       0.0614
     40  CZ2      -11.2420    2.9770   -5.0990 C.ar   21  TRP21       0.0158
     41  CH2      -11.3060    3.0240   -6.5170 C.ar   21  TRP21       0.0013
     42  CZ3      -10.3640    3.7270   -7.2650 C.ar   21  TRP21      -0.0002
     43  CE3       -9.2810    4.3830   -6.7050 C.ar   21  TRP21      -0.0030
     44  CD2       -9.0950    4.3440   -5.3390 C.ar   21  TRP21      -0.0059
     45  C         -4.8510    6.8160   -5.3910 C.2    21  TRP21       0.3842
     46  O         -5.0400    8.0490   -5.1500 O.co2  21  TRP21      -0.2437
     47  OXT       -3.9720    6.3760   -6.1010 O.co2  21  TRP21      -0.2437
@<TRIPOS>BOND
     1    42    43   ar
     2    42    41   ar
     3    43    44   ar
     4    41    40   ar
     5    47    45   ar
     6    45    46   ar
     7    45    34    1
     8    44    39   ar
     9    44    36    1
    10    40    39   ar
    11    35    34    1
    12    35    36    1
    13    34    33    1
    14    39    38    1
    15    36    37    1
    16     5     4    1
    17    38    37    1
    18    33    31   am
    19     8     7    2
    20    32    31    2
    21    31    26    1
    22     2     7    1
    23     2     3    1
    24     2     1    1
    25     4     3    1
    26     4     6    1
    27     7     9   am
    28    30    29    1
    29    26    27    1
    30    26    25    1
    31    29    27    1
    32    27    28    1
    33     9    10    1
    34    16    15    2
    35    25    23   am
    36    10    15    1
    37    10    11    1
    38    15    17   am
    39    23    24    2
    40    23    18    1
    41    17    18    1
    42    13    12   ar
    43    11    12    1
    44    12    14   ar
    45    18    19    1
    46    19    20    1
    47    19    21    1
    48    21    22    1
