@<TRIPOS>MOLECULE
HTS1204-03362316-01
 87 90 0 0 0
SMALL
USER_CHARGES

@<TRIPOS>ATOM
      1 C1         -5.5801    4.7409    1.9830 C.ar    1  UNK11      -0.0199
      2 N1         -3.5687    4.2372    2.8147 N.ar    1  UNK11      -0.3494
      3 C2         -5.2694    5.9936   -4.9222 C.2     1  UNK11       0.3028
      4 C3         -4.2207    4.9597    1.8503 C.ar    1  UNK11       0.0086
      5 C4         -7.9456    3.4329   -0.0522 C.2     1  UNK11       0.2342
      6 C5         -5.7407    3.8578    3.0980 C.ar    1  UNK11       0.0031
      7 C6         -5.8564    4.1654   -2.3700 C.2     1  UNK11       0.2340
      8 C7         -4.4695    3.5098    3.5591 C.ar    1  UNK11       0.0491
      9 N2         -6.1213    6.0864   -3.8484 N.am    1  UNK11      -0.2879
     10 N3         -4.6075    7.1837   -5.2221 N.am    1  UNK11      -0.2856
     11 N4         -5.8788    4.3466   -1.0092 N.am    1  UNK11      -0.3022
     12 N5         -7.3606    2.3061    0.4872 N.am    1  UNK11      -0.3054
     13 C8         -7.0414    4.6787   -0.1711 C.3     1  UNK11       0.1034
     14 C9         -6.8480    4.9352   -3.2826 C.3     1  UNK11       0.1011
     15 C10        -8.1259    1.0497    0.7410 C.3     1  UNK11       0.0680
     16 C11        -6.6802    5.3541    1.1634 C.3     1  UNK11       0.0013
     17 C12        -9.2441    1.1384    1.8347 C.2     1  UNK11       0.0623
     18 C13        -8.7109    0.3849   -0.5196 C.3     1  UNK11       0.0133
     19 O1         -5.1079    4.9758   -5.5833 O.2     1  UNK11      -0.2526
     20 O2         -4.9220    3.4955   -2.8185 O.2     1  UNK11      -0.2738
     21 O3         -9.0670    3.4570   -0.5534 O.2     1  UNK11      -0.2738
     22 N6         -7.8281   -1.6398   -1.5996 N.ar    1  UNK11      -0.2598
     23 O4         -9.5096    2.2961    2.2744 O.co2   1  UNK11      -0.5479
     24 C14        -7.5214    4.0411   -4.3418 C.3     1  UNK11      -0.0236
     25 C15        -7.6822   -0.3049   -1.3971 C.ar    1  UNK11       0.0434
     26 O5         -9.7003    0.0267    2.2341 O.co2   1  UNK11      -0.5479
     27 C16        -2.1415    4.2550    3.0412 C.3     1  UNK11       0.0119
     28 C17        -5.0384    8.4947   -4.7260 C.3     1  UNK11       0.0161
     29 C18        -3.5672    7.1325   -6.2453 C.3     1  UNK11       0.0161
     30 C19        -4.2805    2.5861    4.6019 C.ar    1  UNK11      -0.0376
     31 C20        -6.8616    3.2977    3.7381 C.ar    1  UNK11      -0.0523
     32 C21        -8.7122    3.2189   -3.8086 C.3     1  UNK11      -0.0446
     33 C22        -6.9370   -2.2554   -2.4070 C.ar    1  UNK11       0.0279
     34 C23        -6.6584    0.4122   -2.0103 C.ar    1  UNK11      -0.0403
     35 C24        -9.1206    2.1513   -4.8272 C.3     1  UNK11      -0.0626
     36 C25        -9.9289    4.0899   -3.4839 C.3     1  UNK11      -0.0626
     37 C26        -4.5555    9.7035   -5.5300 C.3     1  UNK11      -0.0371
     38 C27        -4.0784    7.4780   -7.6450 C.3     1  UNK11      -0.0371
     39 C28        -6.6888    2.3567    4.7555 C.ar    1  UNK11      -0.0611
     40 C29        -5.4134    2.0027    5.1777 C.ar    1  UNK11      -0.0598
     41 C30        -5.8931   -1.6092   -3.0448 C.ar    1  UNK11      -0.0436
     42 C31        -5.7546   -0.2452   -2.8406 C.ar    1  UNK11      -0.0586
     43 C32        -5.0686    9.7725   -6.9709 C.3     1  UNK11      -0.0516
     44 C33        -5.2613    8.4438   -7.6990 C.3     1  UNK11      -0.0516
     45 H          -3.6734    5.5833    1.1547 H       1  UNK11       0.0812
     46 H          -5.8115    6.7465   -3.1554 H       1  UNK11       0.1510
     47 H          -5.2017    3.7370   -0.5624 H       1  UNK11       0.1495
     48 H          -6.6269    2.4648    1.1620 H       1  UNK11       0.1494
     49 H          -7.6431    5.4171   -0.7098 H       1  UNK11       0.0598
     50 H          -7.6216    5.4076   -2.6815 H       1  UNK11       0.0595
     51 H          -7.3725    0.3719    1.1679 H       1  UNK11       0.0564
     52 H          -7.5843    5.4455    1.7782 H       1  UNK11       0.0337
     53 H          -6.3686    6.3844    0.9395 H       1  UNK11       0.0337
     54 H          -9.2549    1.1041   -1.1405 H       1  UNK11       0.0350
     55 H          -9.4544   -0.3718   -0.2392 H       1  UNK11       0.0350
     56 H          -6.7820    3.3447   -4.7560 H       1  UNK11       0.0290
     57 H          -7.8747    4.6599   -5.1776 H       1  UNK11       0.0290
     58 H          -1.6783    5.0141    2.4060 H       1  UNK11       0.0456
     59 H          -1.7409    3.2674    2.8001 H       1  UNK11       0.0456
     60 H          -1.9598    4.4994    4.0921 H       1  UNK11       0.0456
     61 H          -4.6555    8.5791   -3.7021 H       1  UNK11       0.0465
     62 H          -6.1331    8.5100   -4.6671 H       1  UNK11       0.0465
     63 H          -3.1197    6.1312   -6.2725 H       1  UNK11       0.0465
     64 H          -2.7503    7.7964   -5.9467 H       1  UNK11       0.0465
     65 H          -3.2894    2.3082    4.9424 H       1  UNK11       0.0638
     66 H          -7.8699    3.5514    3.4179 H       1  UNK11       0.0624
     67 H          -8.3983    2.6996   -2.9000 H       1  UNK11       0.0296
     68 H          -7.0959   -3.3216   -2.5327 H       1  UNK11       0.0829
     69 H          -6.5604    1.4778   -1.8565 H       1  UNK11       0.0635
     70 H          -9.4715    2.6055   -5.7597 H       1  UNK11       0.0232
     71 H          -9.9281    1.5267   -4.4295 H       1  UNK11       0.0232
     72 H          -8.2786    1.4927   -5.0637 H       1  UNK11       0.0232
     73 H         -10.2996    4.6042   -4.3768 H       1  UNK11       0.0232
     74 H          -9.7029    4.8498   -2.7315 H       1  UNK11       0.0232
     75 H         -10.7451    3.4753   -3.0872 H       1  UNK11       0.0232
     76 H          -3.4604    9.7441   -5.5335 H       1  UNK11       0.0280
     77 H          -4.8712   10.6175   -5.0110 H       1  UNK11       0.0280
     78 H          -4.3900    6.5491   -8.1402 H       1  UNK11       0.0280
     79 H          -3.2449    7.8710   -8.2395 H       1  UNK11       0.0280
     80 H          -7.5703    1.8886    5.1900 H       1  UNK11       0.0618
     81 H          -5.3014    1.2576    5.9607 H       1  UNK11       0.0618
     82 H          -5.2098   -2.1524   -3.6850 H       1  UNK11       0.0633
     83 H          -4.9581    0.3159   -3.3218 H       1  UNK11       0.0619
     84 H          -4.3881   10.4083   -7.5508 H       1  UNK11       0.0266
     85 H          -6.0354   10.2924   -6.9701 H       1  UNK11       0.0266
     86 H          -6.1540    7.9430   -7.3029 H       1  UNK11       0.0266
     87 H          -5.4904    8.6543   -8.7514 H       1  UNK11       0.0266
@<TRIPOS>BOND
     1     2     4   ar
     2     3     9   am
     3     1     4   ar
     4     5    13    1
     5     1     6   ar
     6     7    11   am
     7     6     8   ar
     8     9    14    1
     9     3    10   am
    10    11    13    1
    11     5    12   am
    12    13    16    1
    13     7    14    1
    14    12    15    1
    15     1    16    1
    16    15    17    1
    17    15    18    1
    18     3    19    2
    19     7    20    2
    20     5    21    2
    21    22    25   ar
    22    17    23   ar
    23    14    24    1
    24    18    25    1
    25    17    26   ar
    26     2    27    1
    27    10    28    1
    28    10    29    1
    29     8    30   ar
    30     6    31   ar
    31    24    32    1
    32    22    33   ar
    33    25    34   ar
    34    32    35    1
    35    32    36    1
    36    28    37    1
    37    29    38    1
    38    31    39   ar
    39    39    40   ar
    40    41    42   ar
    41    34    42   ar
    42    37    43    1
    43    38    44    1
    44     2     8   ar
    45    30    40   ar
    46    33    41   ar
    47    43    44    1
    48     4    45    1
    49     9    46    1
    50    11    47    1
    51    12    48    1
    52    13    49    1
    53    14    50    1
    54    15    51    1
    55    16    52    1
    56    16    53    1
    57    18    54    1
    58    18    55    1
    59    24    56    1
    60    24    57    1
    61    27    58    1
    62    27    59    1
    63    27    60    1
    64    28    61    1
    65    28    62    1
    66    29    63    1
    67    29    64    1
    68    30    65    1
    69    31    66    1
    70    32    67    1
    71    33    68    1
    72    34    69    1
    73    35    70    1
    74    35    71    1
    75    35    72    1
    76    36    73    1
    77    36    74    1
    78    36    75    1
    79    37    76    1
    80    37    77    1
    81    38    78    1
    82    38    79    1
    83    39    80    1
    84    40    81    1
    85    41    82    1
    86    42    83    1
    87    43    84    1
    88    43    85    1
    89    44    86    1
    90    44    87    1
@<TRIPOS>MOLECULE
../1EDN/PCA1_17-21.pdb
 47 48 0 0 0
SMALL
GASTEIGER

@<TRIPOS>ATOM
      1  N         -4.6470   -0.3680   -1.6750 N.3    17  LEU17      -0.1231
      2  CA        -5.8920   -0.8550   -2.2480 C.3    17  LEU17       0.1693
      3  CB        -6.0770   -2.3450   -1.7480 C.3    17  LEU17       0.0284
      4  CG        -7.4170   -3.0590   -2.1890 C.3    17  LEU17       0.0019
      5  CD1       -7.4920   -3.1930   -3.7220 C.3    17  LEU17       0.0001
      6  CD2       -7.5340   -4.4610   -1.6100 C.3    17  LEU17       0.0001
      7  C         -7.0080    0.1010   -1.8270 C.2    17  LEU17       0.2592
      8  O         -7.6220    0.6590   -2.7680 O.2    17  LEU17      -0.2718
      9  N         -7.2890    0.1920   -0.5460 N.am   18  ASP18      -0.1960
     10  CA        -8.2730    1.1070    0.1120 C.3    18  ASP18       0.1840
     11  CB        -8.8290    0.4520    1.4200 C.3    18  ASP18       0.1450
     12  CG        -9.9140    1.2760    2.0640 C.2    18  ASP18       0.3671
     13  OD1      -10.8560    1.7240    1.3430 O.co2  18  ASP18      -0.2456
     14  OD2       -9.7710    1.5960    3.2830 O.co2  18  ASP18      -0.2456
     15  C         -7.6270    2.4530    0.4740 C.2    18  ASP18       0.2622
     16  O         -8.0770    3.4620   -0.0480 O.2    18  ASP18      -0.2715
     17  N         -6.6010    2.4770    1.3340 N.am   19  ILE19      -0.1963
     18  CA        -6.1660    3.6270    2.0790 C.3    19  ILE19       0.1727
     19  CB        -5.0730    3.3500    3.1520 C.3    19  ILE19       0.0290
     20  CG2       -4.5850    4.5470    3.9530 C.3    19  ILE19       0.0023
     21  CG1       -5.6210    2.1420    3.9730 C.3    19  ILE19       0.0022
     22  CD1       -6.7460    2.5740    4.8760 C.3    19  ILE19       0.0001
     23  C         -5.6740    4.7260    1.1170 C.2    19  ILE19       0.2616
     24  O         -5.9640    5.8590    1.4260 O.2    19  ILE19      -0.2715
     25  N         -4.8940    4.3400    0.1060 N.am   20  ILE20      -0.1963
     26  CA        -4.3700    5.1770   -0.9560 C.3    20  ILE20       0.1727
     27  CB        -2.8480    5.4620   -0.8180 C.3    20  ILE20       0.0290
     28  CG2       -2.5210    6.1670    0.5290 C.3    20  ILE20       0.0023
     29  CG1       -1.9270    4.2500   -0.9510 C.3    20  ILE20       0.0022
     30  CD1       -0.4520    4.4090   -1.0350 C.3    20  ILE20       0.0001
     31  C         -4.8260    4.7960   -2.3980 C.2    20  ILE20       0.2617
     32  O         -4.8210    3.6210   -2.7490 O.2    20  ILE20      -0.2715
     33  N         -5.1950    5.7710   -3.1960 N.am   21  TRP21      -0.1941
     34  CA        -5.6960    5.8160   -4.5740 C.3    21  TRP21       0.1982
     35  CB        -7.1930    6.0870   -4.6010 C.3    21  TRP21       0.0394
     36  CG        -8.1480    4.9210   -4.3560 C.3    21  TRP21       0.0475
     37  CD1       -8.4270    4.3170   -3.1580 C.3    21  TRP21       0.1166
     38  NE1       -9.4680    3.4340   -3.3480 N.pl3  21  TRP21      -0.2376
     39  CE2      -10.0400    3.5420   -4.5600 C.ar   21  TRP21       0.0614
     40  CZ2      -11.2420    2.9770   -5.0990 C.ar   21  TRP21       0.0158
     41  CH2      -11.3060    3.0240   -6.5170 C.ar   21  TRP21       0.0013
     42  CZ3      -10.3640    3.7270   -7.2650 C.ar   21  TRP21      -0.0002
     43  CE3       -9.2810    4.3830   -6.7050 C.ar   21  TRP21      -0.0030
     44  CD2       -9.0950    4.3440   -5.3390 C.ar   21  TRP21      -0.0059
     45  C         -4.8510    6.8160   -5.3910 C.2    21  TRP21       0.3842
     46  O         -5.0400    8.0490   -5.1500 O.co2  21  TRP21      -0.2437
     47  OXT       -3.9720    6.3760   -6.1010 O.co2  21  TRP21      -0.2437
@<TRIPOS>BOND
     1    42    43   ar
     2    42    41   ar
     3    43    44   ar
     4    41    40   ar
     5    47    45   ar
     6    45    46   ar
     7    45    34    1
     8    44    39   ar
     9    44    36    1
    10    40    39   ar
    11    35    34    1
    12    35    36    1
    13    34    33    1
    14    39    38    1
    15    36    37    1
    16     5     4    1
    17    38    37    1
    18    33    31   am
    19     8     7    2
    20    32    31    2
    21    31    26    1
    22     2     7    1
    23     2     3    1
    24     2     1    1
    25     4     3    1
    26     4     6    1
    27     7     9   am
    28    30    29    1
    29    26    27    1
    30    26    25    1
    31    29    27    1
    32    27    28    1
    33     9    10    1
    34    16    15    2
    35    25    23   am
    36    10    15    1
    37    10    11    1
    38    15    17   am
    39    23    24    2
    40    23    18    1
    41    17    18    1
    42    13    12   ar
    43    11    12    1
    44    12    14   ar
    45    18    19    1
    46    19    20    1
    47    19    21    1
    48    21    22    1
