@<TRIPOS>MOLECULE
*****
 48 50 0 0 0
SMALL
GASTEIGER

@<TRIPOS>ATOM
      1 C         -10.0036    2.3598    1.9140 C.ar    1  LIG11      -0.0615
      2 C         -10.4349    1.1266    1.4368 C.ar    1  LIG11      -0.0617
      3 C          -9.6371    0.4182    0.5445 C.ar    1  LIG11      -0.0615
      4 C          -8.3989    0.9324    0.1465 C.ar    1  LIG11      -0.0576
      5 C          -7.9237    2.1629    0.6380 C.ar    1  LIG11      -0.0332
      6 C          -8.7697    2.8782    1.5087 C.ar    1  LIG11      -0.0576
      7 C          -5.7447    4.8089    1.6126 C.ar    1  LIG11      -0.0576
      8 C          -5.1824    5.3733    2.7639 C.ar    1  LIG11      -0.0615
      9 C          -4.7558    4.5625    3.8100 C.ar    1  LIG11      -0.0617
     10 C          -4.8997    3.1844    3.7095 C.ar    1  LIG11      -0.0615
     11 C          -5.4582    2.6225    2.5574 C.ar    1  LIG11      -0.0576
     12 N          -9.0460    2.9852   -3.7209 N.ar    1  LIG11      -0.2002
     13 C          -8.0687    3.6281   -3.0573 C.ar    1  LIG11       0.3190
     14 N          -7.6212    4.8511   -3.3554 N.ar    1  LIG11      -0.2002
     15 C          -8.1396    5.4509   -4.4380 C.ar    1  LIG11       0.0453
     16 C          -9.1488    4.8757   -5.1828 C.ar    1  LIG11      -0.0193
     17 C          -9.5828    3.6290   -4.7746 C.ar    1  LIG11       0.0453
     18 C         -10.6972    2.9288   -5.4882 C.3     1  LIG11      -0.0221
     19 C          -7.5457    6.7663   -4.8356 C.3     1  LIG11      -0.0221
     20 O          -7.4855    2.9033   -2.0477 O.3     1  LIG11      -0.4519
     21 C          -6.7781    3.6899   -1.0389 C.3     1  LIG11       0.1554
     22 C          -6.5239    2.7483    0.2100 C.3     1  LIG11       0.0601
     23 C          -5.4506    4.2600   -1.6397 C.2     1  LIG11       0.0833
     24 O          -4.7362    3.4549   -2.3094 O.co2   1  LIG11      -0.5460
     25 O          -5.2186    5.4822   -1.3803 O.co2   1  LIG11      -0.5460
     26 C          -5.8763    3.4191    1.4675 C.ar    1  LIG11      -0.0332
     27 C          -5.5663    1.5895   -0.2185 C.3     1  LIG11      -0.0477
     28 H         -10.6262    2.9286    2.5988 H       1  LIG11       0.0618
     29 H         -11.3953    0.7266    1.7445 H       1  LIG11       0.0618
     30 H          -9.9765   -0.5318    0.1415 H       1  LIG11       0.0618
     31 H          -7.8217    0.3654   -0.5795 H       1  LIG11       0.0621
     32 H          -8.4703    3.8518    1.8896 H       1  LIG11       0.0621
     33 H          -6.0689    5.4923    0.8320 H       1  LIG11       0.0621
     34 H          -5.0744    6.4525    2.8254 H       1  LIG11       0.0618
     35 H          -4.3136    5.0052    4.6966 H       1  LIG11       0.0618
     36 H          -4.5788    2.5403    4.5224 H       1  LIG11       0.0618
     37 H          -5.5779    1.5424    2.5229 H       1  LIG11       0.0621
     38 H          -9.5654    5.3742   -6.0477 H       1  LIG11       0.0653
     39 H         -10.9684    3.4401   -6.4182 H       1  LIG11       0.0293
     40 H         -11.5824    2.8921   -4.8454 H       1  LIG11       0.0293
     41 H         -10.3988    1.9067   -5.7397 H       1  LIG11       0.0293
     42 H          -6.7607    7.0702   -4.1336 H       1  LIG11       0.0293
     43 H          -8.3137    7.5436   -4.8482 H       1  LIG11       0.0293
     44 H          -7.0955    6.6897   -5.8311 H       1  LIG11       0.0293
     45 H          -7.4385    4.5171   -0.7352 H       1  LIG11       0.0810
     46 H          -5.8242    1.1781   -1.2012 H       1  LIG11       0.0243
     47 H          -5.5853    0.7465    0.4818 H       1  LIG11       0.0243
     48 H          -4.5245    1.9281   -0.2701 H       1  LIG11       0.0243
@<TRIPOS>BOND
     1     1     2   ar
     2     2     3   ar
     3     3     4   ar
     4     4     5   ar
     5     5     6   ar
     6     5    22    1
     7     6     1   ar
     8     7     8   ar
     9     8     9   ar
    10     9    10   ar
    11    10    11   ar
    12    11    26   ar
    13    12    13   ar
    14    13    14   ar
    15    14    15   ar
    16    15    16   ar
    17    15    19    1
    18    16    17   ar
    19    17    12   ar
    20    17    18    1
    21    20    21    1
    22    20    13    1
    23    21    23    1
    24    21    22    1
    25    22    27    1
    26    22    26    1
    27    23    25   ar
    28    23    24   ar
    29    26     7   ar
    30     1    28    1
    31     2    29    1
    32     3    30    1
    33     4    31    1
    34     6    32    1
    35     7    33    1
    36     8    34    1
    37     9    35    1
    38    10    36    1
    39    11    37    1
    40    16    38    1
    41    18    39    1
    42    18    40    1
    43    18    41    1
    44    19    42    1
    45    19    43    1
    46    19    44    1
    47    21    45    1
    48    27    46    1
    49    27    47    1
    50    27    48    1
@<TRIPOS>MOLECULE
../1EDN/PCA1_17-21.pdb
 47 48 0 0 0
SMALL
GASTEIGER

@<TRIPOS>ATOM
      1  N         -4.6470   -0.3680   -1.6750 N.3    17  LEU17      -0.1231
      2  CA        -5.8920   -0.8550   -2.2480 C.3    17  LEU17       0.1693
      3  CB        -6.0770   -2.3450   -1.7480 C.3    17  LEU17       0.0284
      4  CG        -7.4170   -3.0590   -2.1890 C.3    17  LEU17       0.0019
      5  CD1       -7.4920   -3.1930   -3.7220 C.3    17  LEU17       0.0001
      6  CD2       -7.5340   -4.4610   -1.6100 C.3    17  LEU17       0.0001
      7  C         -7.0080    0.1010   -1.8270 C.2    17  LEU17       0.2592
      8  O         -7.6220    0.6590   -2.7680 O.2    17  LEU17      -0.2718
      9  N         -7.2890    0.1920   -0.5460 N.am   18  ASP18      -0.1960
     10  CA        -8.2730    1.1070    0.1120 C.3    18  ASP18       0.1840
     11  CB        -8.8290    0.4520    1.4200 C.3    18  ASP18       0.1450
     12  CG        -9.9140    1.2760    2.0640 C.2    18  ASP18       0.3671
     13  OD1      -10.8560    1.7240    1.3430 O.co2  18  ASP18      -0.2456
     14  OD2       -9.7710    1.5960    3.2830 O.co2  18  ASP18      -0.2456
     15  C         -7.6270    2.4530    0.4740 C.2    18  ASP18       0.2622
     16  O         -8.0770    3.4620   -0.0480 O.2    18  ASP18      -0.2715
     17  N         -6.6010    2.4770    1.3340 N.am   19  ILE19      -0.1963
     18  CA        -6.1660    3.6270    2.0790 C.3    19  ILE19       0.1727
     19  CB        -5.0730    3.3500    3.1520 C.3    19  ILE19       0.0290
     20  CG2       -4.5850    4.5470    3.9530 C.3    19  ILE19       0.0023
     21  CG1       -5.6210    2.1420    3.9730 C.3    19  ILE19       0.0022
     22  CD1       -6.7460    2.5740    4.8760 C.3    19  ILE19       0.0001
     23  C         -5.6740    4.7260    1.1170 C.2    19  ILE19       0.2616
     24  O         -5.9640    5.8590    1.4260 O.2    19  ILE19      -0.2715
     25  N         -4.8940    4.3400    0.1060 N.am   20  ILE20      -0.1963
     26  CA        -4.3700    5.1770   -0.9560 C.3    20  ILE20       0.1727
     27  CB        -2.8480    5.4620   -0.8180 C.3    20  ILE20       0.0290
     28  CG2       -2.5210    6.1670    0.5290 C.3    20  ILE20       0.0023
     29  CG1       -1.9270    4.2500   -0.9510 C.3    20  ILE20       0.0022
     30  CD1       -0.4520    4.4090   -1.0350 C.3    20  ILE20       0.0001
     31  C         -4.8260    4.7960   -2.3980 C.2    20  ILE20       0.2617
     32  O         -4.8210    3.6210   -2.7490 O.2    20  ILE20      -0.2715
     33  N         -5.1950    5.7710   -3.1960 N.am   21  TRP21      -0.1941
     34  CA        -5.6960    5.8160   -4.5740 C.3    21  TRP21       0.1982
     35  CB        -7.1930    6.0870   -4.6010 C.3    21  TRP21       0.0394
     36  CG        -8.1480    4.9210   -4.3560 C.3    21  TRP21       0.0475
     37  CD1       -8.4270    4.3170   -3.1580 C.3    21  TRP21       0.1166
     38  NE1       -9.4680    3.4340   -3.3480 N.pl3  21  TRP21      -0.2376
     39  CE2      -10.0400    3.5420   -4.5600 C.ar   21  TRP21       0.0614
     40  CZ2      -11.2420    2.9770   -5.0990 C.ar   21  TRP21       0.0158
     41  CH2      -11.3060    3.0240   -6.5170 C.ar   21  TRP21       0.0013
     42  CZ3      -10.3640    3.7270   -7.2650 C.ar   21  TRP21      -0.0002
     43  CE3       -9.2810    4.3830   -6.7050 C.ar   21  TRP21      -0.0030
     44  CD2       -9.0950    4.3440   -5.3390 C.ar   21  TRP21      -0.0059
     45  C         -4.8510    6.8160   -5.3910 C.2    21  TRP21       0.3842
     46  O         -5.0400    8.0490   -5.1500 O.co2  21  TRP21      -0.2437
     47  OXT       -3.9720    6.3760   -6.1010 O.co2  21  TRP21      -0.2437
@<TRIPOS>BOND
     1    42    43   ar
     2    42    41   ar
     3    43    44   ar
     4    41    40   ar
     5    47    45   ar
     6    45    46   ar
     7    45    34    1
     8    44    39   ar
     9    44    36    1
    10    40    39   ar
    11    35    34    1
    12    35    36    1
    13    34    33    1
    14    39    38    1
    15    36    37    1
    16     5     4    1
    17    38    37    1
    18    33    31   am
    19     8     7    2
    20    32    31    2
    21    31    26    1
    22     2     7    1
    23     2     3    1
    24     2     1    1
    25     4     3    1
    26     4     6    1
    27     7     9   am
    28    30    29    1
    29    26    27    1
    30    26    25    1
    31    29    27    1
    32    27    28    1
    33     9    10    1
    34    16    15    2
    35    25    23   am
    36    10    15    1
    37    10    11    1
    38    15    17   am
    39    23    24    2
    40    23    18    1
    41    17    18    1
    42    13    12   ar
    43    11    12    1
    44    12    14   ar
    45    18    19    1
    46    19    20    1
    47    19    21    1
    48    21    22    1
