@<TRIPOS>MOLECULE
177236
 51 53 0 0 0
SMALL
GASTEIGER

@<TRIPOS>ATOM
      1 O          -9.0888    1.4984    0.9157 O.3     1  LIG11      -0.3632
      2 O          -7.4071    3.6240   -1.7437 O.3     1  LIG11      -0.4494
      3 O          -8.5527    5.1686    0.2682 O.co2   1  LIG11      -0.5459
      4 O         -10.5054    4.2231   -0.4136 O.co2   1  LIG11      -0.5459
      5 O          -6.5618    6.3525   -5.4206 O.3     1  LIG11      -0.4794
      6 O         -10.3879    3.6637   -5.3638 O.3     1  LIG11      -0.4794
      7 N          -6.9972    5.0158   -3.5241 N.ar    1  LIG11      -0.1594
      8 N          -8.9364    3.6491   -3.5156 N.ar    1  LIG11      -0.1594
      9 C          -7.9758    2.0172    0.1116 C.3     1  LIG11       0.1609
     10 C          -8.4812    3.0786   -0.9290 C.3     1  LIG11       0.1791
     11 C          -6.9370    2.5938    1.1136 C.ar    1  LIG11      -0.0075
     12 C          -7.3433    0.7255   -0.5315 C.ar    1  LIG11      -0.0075
     13 C          -7.2229    2.7083    2.4879 C.ar    1  LIG11      -0.0554
     14 C          -7.2164   -0.4440    0.2520 C.ar    1  LIG11      -0.0554
     15 C          -5.6602    3.0030    0.6839 C.ar    1  LIG11      -0.0554
     16 C          -6.8781    0.6580   -1.8550 C.ar    1  LIG11      -0.0554
     17 C          -9.2414    4.2561   -0.2660 C.2     1  LIG11       0.0856
     18 C         -10.2315    1.0221    0.2179 C.3     1  LIG11       0.0382
     19 C          -6.2752    3.1970    3.3921 C.ar    1  LIG11      -0.0614
     20 C          -6.6832   -1.6245   -0.2722 C.ar    1  LIG11      -0.0614
     21 C          -4.7140    3.4989    1.5856 C.ar    1  LIG11      -0.0614
     22 C          -6.3254   -0.5203   -2.3754 C.ar    1  LIG11      -0.0614
     23 C          -5.0191    3.5915    2.9407 C.ar    1  LIG11      -0.0617
     24 C          -6.2378   -1.6620   -1.5877 C.ar    1  LIG11      -0.0617
     25 C          -7.8471    4.1665   -2.9329 C.ar    1  LIG11       0.3249
     26 C          -7.3647    5.4543   -4.7371 C.ar    1  LIG11       0.2240
     27 C          -9.2577    4.1327   -4.7183 C.ar    1  LIG11       0.2240
     28 C          -8.4992    5.0491   -5.3963 C.ar    1  LIG11       0.0617
     29 C          -5.4043    6.7293   -4.6751 C.3     1  LIG11       0.0804
     30 C         -11.2069    2.8679   -4.5079 C.3     1  LIG11       0.0804
     31 H          -9.1902    2.5443   -1.5718 H       1  LIG11       0.0834
     32 H          -8.2061    2.4329    2.8666 H       1  LIG11       0.0621
     33 H          -7.5530   -0.4328    1.2856 H       1  LIG11       0.0621
     34 H          -5.3970    2.9534   -0.3685 H       1  LIG11       0.0621
     35 H          -6.9210    1.5132   -2.5190 H       1  LIG11       0.0621
     36 H         -10.8271    0.4357    0.9238 H       1  LIG11       0.0524
     37 H          -9.9695    0.3731   -0.6214 H       1  LIG11       0.0524
     38 H         -10.8620    1.8410   -0.1269 H       1  LIG11       0.0524
     39 H          -6.5318    3.2854    4.4429 H       1  LIG11       0.0618
     40 H          -6.6214   -2.5095    0.3517 H       1  LIG11       0.0618
     41 H          -3.7451    3.8286    1.2205 H       1  LIG11       0.0618
     42 H          -5.9678   -0.5322   -3.4003 H       1  LIG11       0.0618
     43 H          -4.2906    3.9900    3.6388 H       1  LIG11       0.0618
     44 H          -5.8180   -2.5762   -2.0000 H       1  LIG11       0.0618
     45 H          -8.7664    5.4147   -6.3736 H       1  LIG11       0.0724
     46 H          -4.8471    7.4546   -5.2761 H       1  LIG11       0.0660
     47 H          -4.7488    5.8675   -4.5036 H       1  LIG11       0.0660
     48 H          -5.6757    7.2166   -3.7323 H       1  LIG11       0.0660
     49 H         -12.0939    2.5725   -5.0773 H       1  LIG11       0.0660
     50 H         -11.5443    3.4390   -3.6352 H       1  LIG11       0.0660
     51 H         -10.6914    1.9491   -4.2039 H       1  LIG11       0.0660
@<TRIPOS>BOND
     1     1     9    1
     2     1    18    1
     3     2    10    1
     4     2    25    1
     5     3    17   ar
     6     4    17   ar
     7     5    26    1
     8     5    29    1
     9     6    27    1
    10     6    30    1
    11     7    25   ar
    12     7    26   ar
    13     8    25   ar
    14     8    27   ar
    15     9    10    1
    16     9    11    1
    17     9    12    1
    18    10    17    1
    19    11    13   ar
    20    11    15   ar
    21    12    14   ar
    22    12    16   ar
    23    13    19   ar
    24    14    20   ar
    25    15    21   ar
    26    16    22   ar
    27    19    23   ar
    28    20    24   ar
    29    21    23   ar
    30    22    24   ar
    31    26    28   ar
    32    27    28   ar
    33    10    31    1
    34    13    32    1
    35    14    33    1
    36    15    34    1
    37    16    35    1
    38    18    36    1
    39    18    37    1
    40    18    38    1
    41    19    39    1
    42    20    40    1
    43    21    41    1
    44    22    42    1
    45    23    43    1
    46    24    44    1
    47    28    45    1
    48    29    46    1
    49    29    47    1
    50    29    48    1
    51    30    49    1
    52    30    50    1
    53    30    51    1
@<TRIPOS>MOLECULE
../1EDN/PCA1_17-21.pdb
 47 48 0 0 0
SMALL
GASTEIGER

@<TRIPOS>ATOM
      1  N         -4.6470   -0.3680   -1.6750 N.3    17  LEU17      -0.1231
      2  CA        -5.8920   -0.8550   -2.2480 C.3    17  LEU17       0.1693
      3  CB        -6.0770   -2.3450   -1.7480 C.3    17  LEU17       0.0284
      4  CG        -7.4170   -3.0590   -2.1890 C.3    17  LEU17       0.0019
      5  CD1       -7.4920   -3.1930   -3.7220 C.3    17  LEU17       0.0001
      6  CD2       -7.5340   -4.4610   -1.6100 C.3    17  LEU17       0.0001
      7  C         -7.0080    0.1010   -1.8270 C.2    17  LEU17       0.2592
      8  O         -7.6220    0.6590   -2.7680 O.2    17  LEU17      -0.2718
      9  N         -7.2890    0.1920   -0.5460 N.am   18  ASP18      -0.1960
     10  CA        -8.2730    1.1070    0.1120 C.3    18  ASP18       0.1840
     11  CB        -8.8290    0.4520    1.4200 C.3    18  ASP18       0.1450
     12  CG        -9.9140    1.2760    2.0640 C.2    18  ASP18       0.3671
     13  OD1      -10.8560    1.7240    1.3430 O.co2  18  ASP18      -0.2456
     14  OD2       -9.7710    1.5960    3.2830 O.co2  18  ASP18      -0.2456
     15  C         -7.6270    2.4530    0.4740 C.2    18  ASP18       0.2622
     16  O         -8.0770    3.4620   -0.0480 O.2    18  ASP18      -0.2715
     17  N         -6.6010    2.4770    1.3340 N.am   19  ILE19      -0.1963
     18  CA        -6.1660    3.6270    2.0790 C.3    19  ILE19       0.1727
     19  CB        -5.0730    3.3500    3.1520 C.3    19  ILE19       0.0290
     20  CG2       -4.5850    4.5470    3.9530 C.3    19  ILE19       0.0023
     21  CG1       -5.6210    2.1420    3.9730 C.3    19  ILE19       0.0022
     22  CD1       -6.7460    2.5740    4.8760 C.3    19  ILE19       0.0001
     23  C         -5.6740    4.7260    1.1170 C.2    19  ILE19       0.2616
     24  O         -5.9640    5.8590    1.4260 O.2    19  ILE19      -0.2715
     25  N         -4.8940    4.3400    0.1060 N.am   20  ILE20      -0.1963
     26  CA        -4.3700    5.1770   -0.9560 C.3    20  ILE20       0.1727
     27  CB        -2.8480    5.4620   -0.8180 C.3    20  ILE20       0.0290
     28  CG2       -2.5210    6.1670    0.5290 C.3    20  ILE20       0.0023
     29  CG1       -1.9270    4.2500   -0.9510 C.3    20  ILE20       0.0022
     30  CD1       -0.4520    4.4090   -1.0350 C.3    20  ILE20       0.0001
     31  C         -4.8260    4.7960   -2.3980 C.2    20  ILE20       0.2617
     32  O         -4.8210    3.6210   -2.7490 O.2    20  ILE20      -0.2715
     33  N         -5.1950    5.7710   -3.1960 N.am   21  TRP21      -0.1941
     34  CA        -5.6960    5.8160   -4.5740 C.3    21  TRP21       0.1982
     35  CB        -7.1930    6.0870   -4.6010 C.3    21  TRP21       0.0394
     36  CG        -8.1480    4.9210   -4.3560 C.3    21  TRP21       0.0475
     37  CD1       -8.4270    4.3170   -3.1580 C.3    21  TRP21       0.1166
     38  NE1       -9.4680    3.4340   -3.3480 N.pl3  21  TRP21      -0.2376
     39  CE2      -10.0400    3.5420   -4.5600 C.ar   21  TRP21       0.0614
     40  CZ2      -11.2420    2.9770   -5.0990 C.ar   21  TRP21       0.0158
     41  CH2      -11.3060    3.0240   -6.5170 C.ar   21  TRP21       0.0013
     42  CZ3      -10.3640    3.7270   -7.2650 C.ar   21  TRP21      -0.0002
     43  CE3       -9.2810    4.3830   -6.7050 C.ar   21  TRP21      -0.0030
     44  CD2       -9.0950    4.3440   -5.3390 C.ar   21  TRP21      -0.0059
     45  C         -4.8510    6.8160   -5.3910 C.2    21  TRP21       0.3842
     46  O         -5.0400    8.0490   -5.1500 O.co2  21  TRP21      -0.2437
     47  OXT       -3.9720    6.3760   -6.1010 O.co2  21  TRP21      -0.2437
@<TRIPOS>BOND
     1    42    43   ar
     2    42    41   ar
     3    43    44   ar
     4    41    40   ar
     5    47    45   ar
     6    45    46   ar
     7    45    34    1
     8    44    39   ar
     9    44    36    1
    10    40    39   ar
    11    35    34    1
    12    35    36    1
    13    34    33    1
    14    39    38    1
    15    36    37    1
    16     5     4    1
    17    38    37    1
    18    33    31   am
    19     8     7    2
    20    32    31    2
    21    31    26    1
    22     2     7    1
    23     2     3    1
    24     2     1    1
    25     4     3    1
    26     4     6    1
    27     7     9   am
    28    30    29    1
    29    26    27    1
    30    26    25    1
    31    29    27    1
    32    27    28    1
    33     9    10    1
    34    16    15    2
    35    25    23   am
    36    10    15    1
    37    10    11    1
    38    15    17   am
    39    23    24    2
    40    23    18    1
    41    17    18    1
    42    13    12   ar
    43    11    12    1
    44    12    14   ar
    45    18    19    1
    46    19    20    1
    47    19    21    1
    48    21    22    1
