@<TRIPOS>MOLECULE
123882
 117 122 0 0 0
SMALL
GASTEIGER

@<TRIPOS>ATOM
      1 S         -12.3255    0.0877   -0.5165 S.2     3  UNK33      -0.0993
      2 O          -4.6285    8.2450   -5.6058 O.2     1  UNK11      -0.2755
      3 O          -4.1585    0.6112    0.9187 O.2     4  LEU44      -0.2738
      4 O          -8.5106    6.4559   -2.7247 O.2     1  UNK11      -0.2737
      5 O          -6.2649    3.7668   -0.3211 O.2     5  TRP55      -0.2738
      6 O          -5.4613    6.8906   -1.2021 O.2     6  ASP66      -0.2738
      7 O          -8.9271    0.0325    0.9630 O.2     3  UNK33      -0.2734
      8 O          -7.7406    2.1903   -2.6883 O.2     2  ASP22      -0.2737
      9 OD1        -1.5516    4.2982    0.1999 O.co2   6  ASP66      -0.5497
     10 OD2        -0.6645    4.3745   -1.9097 O.co2   6  ASP66      -0.5497
     11 OD1       -10.0893    5.0583   -6.0533 O.co2   2  ASP22      -0.5497
     12 OD2       -10.5735    3.0471   -7.0045 O.co2   2  ASP22      -0.5497
     13 N          -4.0199    6.2504   -6.5607 N.am    1  UNK11      -0.2984
     14 N          -2.8787    5.0856   -8.9650 N.pl3   1  UNK11      -0.3269
     15 N          -5.2932    5.6819   -3.1560 N.am    1  UNK11      -0.3020
     16 N          -6.0045    1.8523    1.4691 N.am    5  TRP55      -0.3022
     17 N          -7.4411    0.7936   -0.5684 N.am    4  LEU44      -0.3022
     18 N          -4.2117    4.6522    0.1758 N.am    6  ASP66      -0.3021
     19 N          -7.9424    4.6053   -3.9539 N.am    2  ASP22      -0.3021
     20 N          -9.7049    2.6139   -1.5977 N.am    3  UNK33      -0.2984
     21 NE1        -6.9984    1.9337    5.8177 N.ar    5  TRP55      -0.3604
     22 C          -4.2865    4.8503   -6.9145 C.3     1  UNK11       0.0304
     23 C          -2.7873    6.8125   -7.1237 C.3     1  UNK11       0.0304
     24 C          -3.2037    4.2217   -7.8115 C.3     1  UNK11       0.0280
     25 C          -2.6785    6.5245   -8.6388 C.3     1  UNK11       0.0280
     26 C          -4.8822    7.0595   -5.8301 C.2     1  UNK11       0.2179
     27 C          -6.1903    6.4534   -5.3539 C.3     1  UNK11       0.0510
     28 C          -6.3321    6.4653   -3.8310 C.3     1  UNK11       0.1076
     29 CA         -6.2814    0.0087   -0.1439 C.3     4  LEU44       0.0997
     30 CB         -5.4796   -0.4718   -1.3754 C.3     4  LEU44      -0.0236
     31 CA         -5.2782    3.0893    1.7892 C.3     5  TRP55       0.1034
     32 C          -3.4948    4.8515  -10.2011 C.ar    1  UNK11       0.0298
     33 CG         -6.1400   -1.4754   -2.3526 C.3     4  LEU44      -0.0446
     34 CB         -5.9996    3.9114    2.8634 C.3     5  TRP55       0.0013
     35 C          -5.3517    0.8584    0.7652 C.2     4  LEU44       0.2340
     36 CA         -3.9369    4.9751   -1.2292 C.3     6  ASP66       0.1045
     37 C          -7.7036    5.8618   -3.4417 C.2     1  UNK11       0.2344
     38 CG         -6.1588    3.1956    4.1776 C.ar    5  TRP55      -0.0201
     39 C          -5.3066    3.8670    0.4528 C.2     5  TRP55       0.2343
     40 C          -4.9952    5.9384   -1.8216 C.2     6  ASP66       0.2343
     41 CA         -9.1695    3.8739   -3.6703 C.3     2  ASP22       0.1045
     42 CD2        -6.5286   -2.7860   -1.6724 C.3     4  LEU44      -0.0626
     43 CD1        -7.3264   -0.9212   -3.1346 C.3     4  LEU44      -0.0626
     44 C          -9.8423    1.2964   -0.9665 C.3     3  UNK33       0.1311
     45 C          -4.7055    4.1578  -10.3441 C.ar    1  UNK11      -0.0407
     46 C          -2.8833    5.3145  -11.3782 C.ar    1  UNK11      -0.0407
     47 CD2        -5.2394    3.1873    5.2775 C.ar    5  TRP55       0.0029
     48 C          -8.7088    0.7073   -0.0446 C.2     3  UNK33       0.2390
     49 CB         -2.5816    5.6451   -1.4225 C.3     6  ASP66       0.0138
     50 CD1        -7.2351    2.4139    4.5586 C.ar    5  TRP55       0.0060
     51 CE2        -5.7970    2.4047    6.2905 C.ar    5  TRP55       0.0467
     52 C          -8.7826    2.8435   -2.5942 C.2     2  ASP22       0.2345
     53 CB         -9.6511    3.0551   -4.8615 C.3     2  ASP22       0.0138
     54 C          -5.2814    3.9359  -11.6017 C.ar    1  UNK11      -0.0600
     55 C          -3.4450    5.0834  -12.6396 C.ar    1  UNK11      -0.0600
     56 C         -11.1478    1.2988   -0.1958 C.ar    3  UNK33       0.0189
     57 CE3        -3.9777    3.7737    5.5029 C.ar    5  TRP55      -0.0523
     58 C          -4.6474    4.3930  -12.7513 C.ar    1  UNK11      -0.0616
     59 CZ2        -5.1626    2.1898    7.5207 C.ar    5  TRP55      -0.0378
     60 CG         -1.4910    4.6776   -1.0074 C.2     6  ASP66       0.0440
     61 CZ3        -3.3292    3.5680    6.7259 C.ar    5  TRP55      -0.0611
     62 C         -11.5786    2.1645    0.7949 C.ar    3  UNK33      -0.0493
     63 CH2        -3.9162    2.7902    7.7205 C.ar    5  TRP55      -0.0598
     64 CG        -10.1523    3.8022   -6.0830 C.2     2  ASP22       0.0440
     65 C         -12.8750    1.8282    1.2851 C.ar    3  UNK33      -0.0544
     66 C         -13.3908    0.7155    0.6611 C.ar    3  UNK33      -0.0240
     67 H          -5.0930    4.7473   -3.4849 H       1  UNK11       0.1495
     68 H          -6.9498    2.0138    1.1369 H       5  TRP55       0.1495
     69 H          -7.2822    1.4750   -1.3164 H       4  LEU44       0.1495
     70 H          -3.3465    4.4116    0.6753 H       6  ASP66       0.1495
     71 H          -7.1828    4.0632   -4.3322 H       2  ASP22       0.1495
     72 H         -10.5587    3.1506   -1.6885 H       3  UNK33       0.1498
     73 HE1        -7.6128    1.3149    6.3250 H       5  TRP55       0.1653
     74 H          -5.2502    4.8220   -7.4337 H       1  UNK11       0.0480
     75 H          -4.3799    4.2745   -5.9880 H       1  UNK11       0.0480
     76 H          -1.9487    6.3516   -6.5884 H       1  UNK11       0.0480
     77 H          -2.7242    7.8921   -6.9503 H       1  UNK11       0.0480
     78 H          -2.2842    4.0968   -7.2264 H       1  UNK11       0.0479
     79 H          -3.4887    3.2095   -8.1189 H       1  UNK11       0.0479
     80 H          -3.4335    7.1387   -9.1495 H       1  UNK11       0.0479
     81 H          -1.6917    6.8396   -8.9956 H       1  UNK11       0.0479
     82 H          -6.3308    5.4478   -5.7462 H       1  UNK11       0.0381
     83 H          -6.9954    7.0494   -5.8048 H       1  UNK11       0.0381
     84 H          -6.2976    7.4953   -3.4608 H       1  UNK11       0.0599
     85 HA         -6.6170   -0.8421    0.4599 H       4  LEU44       0.0594
     86 HB1        -4.5507   -0.9418   -1.0232 H       4  LEU44       0.0290
     87 HB2        -5.1600    0.4066   -1.9530 H       4  LEU44       0.0290
     88 HA         -4.2494    2.8520    2.0742 H       5  TRP55       0.0598
     89 HG         -5.3720   -1.7174   -3.0987 H       4  LEU44       0.0296
     90 HB1        -6.9987    4.1990    2.5069 H       5  TRP55       0.0337
     91 HB2        -5.4637    4.8556    3.0283 H       5  TRP55       0.0337
     92 HA         -3.9714    4.0265   -1.7789 H       6  ASP66       0.0598
     93 HA         -9.9474    4.5499   -3.2989 H       2  ASP22       0.0598
     94 HD21       -7.3040   -2.6358   -0.9151 H       4  LEU44       0.0232
     95 HD22       -5.6571   -3.2436   -1.1917 H       4  LEU44       0.0232
     96 HD23       -6.9139   -3.4971   -2.4084 H       4  LEU44       0.0232
     97 HD11       -8.2029   -0.7737   -2.5039 H       4  LEU44       0.0232
     98 HD12       -7.6234   -1.6181   -3.9285 H       4  LEU44       0.0232
     99 HD13       -7.0662    0.0234   -3.6237 H       4  LEU44       0.0232
    100 H          -9.9208    0.5874   -1.8016 H       3  UNK33       0.0651
    101 H          -5.2515    3.7941   -9.4809 H       1  UNK11       0.0636
    102 H          -1.9340    5.8393  -11.3170 H       1  UNK11       0.0636
    103 HB1        -2.4970    6.5575   -0.8212 H       6  ASP66       0.0348
    104 HB2        -2.4427    5.9359   -2.4731 H       6  ASP66       0.0348
    105 HD1        -8.1357    2.1412    4.0248 H       5  TRP55       0.0810
    106 HB1       -10.4721    2.4015   -4.5351 H       2  ASP22       0.0348
    107 HB2        -8.8471    2.3858   -5.2061 H       2  ASP22       0.0348
    108 H          -6.2297    3.4094  -11.6697 H       1  UNK11       0.0618
    109 H          -2.9377    5.4401  -13.5311 H       1  UNK11       0.0618
    110 HE3        -3.5052    4.3739    4.7289 H       5  TRP55       0.0624
    111 H          -5.0911    4.2126  -13.7247 H       1  UNK11       0.0618
    112 HZ2        -5.6149    1.5745    8.2913 H       5  TRP55       0.0638
    113 HZ3        -2.3529    4.0174    6.8907 H       5  TRP55       0.0618
    114 H         -10.9864    2.9983    1.1526 H       3  UNK33       0.0626
    115 HH2        -3.3935    2.6400    8.6617 H       5  TRP55       0.0618
    116 H         -13.3976    2.3738    2.0603 H       3  UNK33       0.0623
    117 H         -14.3436    0.2380    0.8367 H       3  UNK33       0.0693
@<TRIPOS>BOND
     1     1    56   ar
     2     1    66   ar
     3     2    26    2
     4     3    35    2
     5     4    37    2
     6     5    39    2
     7     6    40    2
     8     7    48    2
     9     8    52    2
    10     9    60   ar
    11    10    60   ar
    12    11    64   ar
    13    12    64   ar
    14    13    22    1
    15    13    23    1
    16    14    24    1
    17    14    25    1
    18    14    32    1
    19    15    28    1
    20    15    40   am
    21    16    35   am
    22    16    31    1
    23    17    48   am
    24    17    29    1
    25    18    39   am
    26    18    36    1
    27    19    37   am
    28    19    41    1
    29    20    52   am
    30    20    44    1
    31    21    50   ar
    32    21    51   ar
    33    22    24    1
    34    23    25    1
    35    26    27    1
    36    26    13   am
    37    28    37    1
    38    28    27    1
    39    29    35    1
    40    29    30    1
    41    30    33    1
    42    31    39    1
    43    31    34    1
    44    32    45   ar
    45    32    46   ar
    46    33    43    1
    47    33    42    1
    48    34    38    1
    49    36    40    1
    50    36    49    1
    51    38    47   ar
    52    38    50   ar
    53    41    52    1
    54    41    53    1
    55    44    48    1
    56    44    56    1
    57    45    54   ar
    58    46    55   ar
    59    47    57   ar
    60    47    51   ar
    61    49    60    1
    62    51    59   ar
    63    53    64    1
    64    54    58   ar
    65    55    58   ar
    66    56    62   ar
    67    57    61   ar
    68    59    63   ar
    69    61    63   ar
    70    62    65   ar
    71    65    66   ar
    72    15    67    1
    73    16    68    1
    74    17    69    1
    75    18    70    1
    76    19    71    1
    77    20    72    1
    78    21    73    1
    79    22    74    1
    80    22    75    1
    81    23    76    1
    82    23    77    1
    83    24    78    1
    84    24    79    1
    85    25    80    1
    86    25    81    1
    87    27    82    1
    88    27    83    1
    89    28    84    1
    90    29    85    1
    91    30    86    1
    92    30    87    1
    93    31    88    1
    94    33    89    1
    95    34    90    1
    96    34    91    1
    97    36    92    1
    98    41    93    1
    99    42    94    1
   100    42    95    1
   101    42    96    1
   102    43    97    1
   103    43    98    1
   104    43    99    1
   105    44   100    1
   106    45   101    1
   107    46   102    1
   108    49   103    1
   109    49   104    1
   110    50   105    1
   111    53   106    1
   112    53   107    1
   113    54   108    1
   114    55   109    1
   115    57   110    1
   116    58   111    1
   117    59   112    1
   118    61   113    1
   119    62   114    1
   120    63   115    1
   121    65   116    1
   122    66   117    1
@<TRIPOS>MOLECULE
../1EDN/PCA1_17-21.pdb
 47 48 0 0 0
SMALL
GASTEIGER

@<TRIPOS>ATOM
      1  N         -4.6470   -0.3680   -1.6750 N.3    17  LEU17      -0.1231
      2  CA        -5.8920   -0.8550   -2.2480 C.3    17  LEU17       0.1693
      3  CB        -6.0770   -2.3450   -1.7480 C.3    17  LEU17       0.0284
      4  CG        -7.4170   -3.0590   -2.1890 C.3    17  LEU17       0.0019
      5  CD1       -7.4920   -3.1930   -3.7220 C.3    17  LEU17       0.0001
      6  CD2       -7.5340   -4.4610   -1.6100 C.3    17  LEU17       0.0001
      7  C         -7.0080    0.1010   -1.8270 C.2    17  LEU17       0.2592
      8  O         -7.6220    0.6590   -2.7680 O.2    17  LEU17      -0.2718
      9  N         -7.2890    0.1920   -0.5460 N.am   18  ASP18      -0.1960
     10  CA        -8.2730    1.1070    0.1120 C.3    18  ASP18       0.1840
     11  CB        -8.8290    0.4520    1.4200 C.3    18  ASP18       0.1450
     12  CG        -9.9140    1.2760    2.0640 C.2    18  ASP18       0.3671
     13  OD1      -10.8560    1.7240    1.3430 O.co2  18  ASP18      -0.2456
     14  OD2       -9.7710    1.5960    3.2830 O.co2  18  ASP18      -0.2456
     15  C         -7.6270    2.4530    0.4740 C.2    18  ASP18       0.2622
     16  O         -8.0770    3.4620   -0.0480 O.2    18  ASP18      -0.2715
     17  N         -6.6010    2.4770    1.3340 N.am   19  ILE19      -0.1963
     18  CA        -6.1660    3.6270    2.0790 C.3    19  ILE19       0.1727
     19  CB        -5.0730    3.3500    3.1520 C.3    19  ILE19       0.0290
     20  CG2       -4.5850    4.5470    3.9530 C.3    19  ILE19       0.0023
     21  CG1       -5.6210    2.1420    3.9730 C.3    19  ILE19       0.0022
     22  CD1       -6.7460    2.5740    4.8760 C.3    19  ILE19       0.0001
     23  C         -5.6740    4.7260    1.1170 C.2    19  ILE19       0.2616
     24  O         -5.9640    5.8590    1.4260 O.2    19  ILE19      -0.2715
     25  N         -4.8940    4.3400    0.1060 N.am   20  ILE20      -0.1963
     26  CA        -4.3700    5.1770   -0.9560 C.3    20  ILE20       0.1727
     27  CB        -2.8480    5.4620   -0.8180 C.3    20  ILE20       0.0290
     28  CG2       -2.5210    6.1670    0.5290 C.3    20  ILE20       0.0023
     29  CG1       -1.9270    4.2500   -0.9510 C.3    20  ILE20       0.0022
     30  CD1       -0.4520    4.4090   -1.0350 C.3    20  ILE20       0.0001
     31  C         -4.8260    4.7960   -2.3980 C.2    20  ILE20       0.2617
     32  O         -4.8210    3.6210   -2.7490 O.2    20  ILE20      -0.2715
     33  N         -5.1950    5.7710   -3.1960 N.am   21  TRP21      -0.1941
     34  CA        -5.6960    5.8160   -4.5740 C.3    21  TRP21       0.1982
     35  CB        -7.1930    6.0870   -4.6010 C.3    21  TRP21       0.0394
     36  CG        -8.1480    4.9210   -4.3560 C.3    21  TRP21       0.0475
     37  CD1       -8.4270    4.3170   -3.1580 C.3    21  TRP21       0.1166
     38  NE1       -9.4680    3.4340   -3.3480 N.pl3  21  TRP21      -0.2376
     39  CE2      -10.0400    3.5420   -4.5600 C.ar   21  TRP21       0.0614
     40  CZ2      -11.2420    2.9770   -5.0990 C.ar   21  TRP21       0.0158
     41  CH2      -11.3060    3.0240   -6.5170 C.ar   21  TRP21       0.0013
     42  CZ3      -10.3640    3.7270   -7.2650 C.ar   21  TRP21      -0.0002
     43  CE3       -9.2810    4.3830   -6.7050 C.ar   21  TRP21      -0.0030
     44  CD2       -9.0950    4.3440   -5.3390 C.ar   21  TRP21      -0.0059
     45  C         -4.8510    6.8160   -5.3910 C.2    21  TRP21       0.3842
     46  O         -5.0400    8.0490   -5.1500 O.co2  21  TRP21      -0.2437
     47  OXT       -3.9720    6.3760   -6.1010 O.co2  21  TRP21      -0.2437
@<TRIPOS>BOND
     1    42    43   ar
     2    42    41   ar
     3    43    44   ar
     4    41    40   ar
     5    47    45   ar
     6    45    46   ar
     7    45    34    1
     8    44    39   ar
     9    44    36    1
    10    40    39   ar
    11    35    34    1
    12    35    36    1
    13    34    33    1
    14    39    38    1
    15    36    37    1
    16     5     4    1
    17    38    37    1
    18    33    31   am
    19     8     7    2
    20    32    31    2
    21    31    26    1
    22     2     7    1
    23     2     3    1
    24     2     1    1
    25     4     3    1
    26     4     6    1
    27     7     9   am
    28    30    29    1
    29    26    27    1
    30    26    25    1
    31    29    27    1
    32    27    28    1
    33     9    10    1
    34    16    15    2
    35    25    23   am
    36    10    15    1
    37    10    11    1
    38    15    17   am
    39    23    24    2
    40    23    18    1
    41    17    18    1
    42    13    12   ar
    43    11    12    1
    44    12    14   ar
    45    18    19    1
    46    19    20    1
    47    19    21    1
    48    21    22    1
