@<TRIPOS>MOLECULE
3047752
 70 74 0 0 0
SMALL
GASTEIGER

@<TRIPOS>ATOM
      1 O          -9.9064    4.0932   -3.1076 O.co2   1  LIG11      -0.5495
      2 O          -8.5860    3.9974   -4.9586 O.co2   1  LIG11      -0.5495
      3 O          -5.3272    8.0926   -6.2219 O.3     1  LIG11      -0.4526
      4 O          -3.2252    6.9155   -6.3633 O.3     1  LIG11      -0.4526
      5 O          -7.0399   -2.6973   -1.3271 O.3     1  LIG11      -0.4951
      6 O          -9.4684    1.7369    3.5560 O.co2   1  LIG11      -0.5495
      7 O         -11.1835    0.2552    3.4042 O.co2   1  LIG11      -0.5495
      8 N          -6.4304    3.4774    0.6356 N.ar    1  LIG11      -0.2556
      9 C          -7.5701    3.7276   -2.8574 C.3     1  LIG11       0.0217
     10 C          -7.8004    3.0172   -1.4842 C.3     1  LIG11       0.0357
     11 C          -7.0511    5.1610   -2.5835 C.3     1  LIG11       0.0199
     12 C          -6.4946    5.0292   -1.1938 C.ar    1  LIG11      -0.0174
     13 C          -6.8198    3.8127   -0.6120 C.ar    1  LIG11       0.0534
     14 C          -7.6308    1.4844   -1.4447 C.ar    1  LIG11      -0.0344
     15 C          -5.9827    5.6075   -3.5860 C.ar    1  LIG11      -0.0356
     16 C          -8.8116    3.9439   -3.7106 C.2     1  LIG11       0.0466
     17 C          -5.7688    5.9666   -0.4754 C.ar    1  LIG11      -0.0546
     18 C          -7.9560    0.7029   -0.3018 C.ar    1  LIG11      -0.0395
     19 C          -7.1613    0.7858   -2.5803 C.ar    1  LIG11      -0.0542
     20 C          -5.7254    4.3933    1.3429 C.ar    1  LIG11       0.0416
     21 C          -6.2351    6.6958   -4.4384 C.ar    1  LIG11      -0.0124
     22 C          -5.3851    5.6447    0.8208 C.ar    1  LIG11      -0.0401
     23 C          -4.7387    4.9284   -3.6842 C.ar    1  LIG11      -0.0543
     24 C          -8.5434    1.2663    0.9933 C.3     1  LIG11      -0.0196
     25 C          -7.6947   -0.6904   -0.3200 C.ar    1  LIG11      -0.0165
     26 C          -5.4172    4.0975    2.7947 C.3     1  LIG11      -0.0104
     27 C          -9.8505    0.6043    1.4703 C.3     1  LIG11      -0.0003
     28 C          -5.2514    7.0650   -5.3336 C.ar    1  LIG11       0.1665
     29 C          -6.9558   -0.5994   -2.5877 C.ar    1  LIG11      -0.0197
     30 C          -3.7625    5.3226   -4.6023 C.ar    1  LIG11      -0.0159
     31 C          -7.2166   -1.3458   -1.4517 C.ar    1  LIG11       0.1204
     32 C          -4.0511    6.3960   -5.4130 C.ar    1  LIG11       0.1662
     33 C          -5.3172    2.6081    3.1344 C.3     1  LIG11      -0.0479
     34 C         -11.0317    1.0194    0.5957 C.3     1  LIG11      -0.0570
     35 C          -4.9228    2.3449    4.5897 C.3     1  LIG11      -0.0556
     36 C         -10.2017    0.9137    2.9422 C.2     1  LIG11       0.0449
     37 C          -4.0727    7.9460   -6.9087 C.3     1  LIG11       0.2332
     38 C          -5.9860    2.7778    5.5895 C.3     1  LIG11      -0.0653
     39 C          -6.9505   -3.4225   -2.5450 C.3     1  LIG11       0.0788
     40 H          -6.8203    3.2068   -3.4564 H       1  LIG11       0.0379
     41 H          -8.8116    3.2387   -1.1227 H       1  LIG11       0.0419
     42 H          -7.8648    5.8975   -2.5480 H       1  LIG11       0.0404
     43 H          -5.5288    6.9322   -0.9060 H       1  LIG11       0.0622
     44 H          -6.9532    1.2949   -3.5156 H       1  LIG11       0.0622
     45 H          -7.1876    7.2154   -4.4148 H       1  LIG11       0.0658
     46 H          -4.8499    6.3681    1.4242 H       1  LIG11       0.0636
     47 H          -4.5424    4.0728   -3.0390 H       1  LIG11       0.0622
     48 H          -7.7700    1.1288    1.7570 H       1  LIG11       0.0319
     49 H          -8.7164    2.3431    0.9194 H       1  LIG11       0.0319
     50 H          -7.8876   -1.2791    0.5747 H       1  LIG11       0.0657
     51 H          -4.4654    4.5772    3.0572 H       1  LIG11       0.0328
     52 H          -6.2007    4.5720    3.3968 H       1  LIG11       0.0328
     53 H          -9.7594   -0.4882    1.4228 H       1  LIG11       0.0361
     54 H          -6.5834   -1.0478   -3.5005 H       1  LIG11       0.0654
     55 H          -2.8217    4.7926   -4.6773 H       1  LIG11       0.0655
     56 H          -6.2726    2.1155    2.9373 H       1  LIG11       0.0269
     57 H          -4.5755    2.1352    2.4795 H       1  LIG11       0.0269
     58 H         -11.1893    2.1018    0.6321 H       1  LIG11       0.0236
     59 H         -10.8666    0.7328   -0.4472 H       1  LIG11       0.0236
     60 H         -11.9605    0.5390    0.9222 H       1  LIG11       0.0236
     61 H          -4.7510    1.2695    4.7126 H       1  LIG11       0.0263
     62 H          -3.9765    2.8472    4.8202 H       1  LIG11       0.0263
     63 H          -4.2717    7.7144   -7.9626 H       1  LIG11       0.1166
     64 H          -3.5326    8.8988   -6.8593 H       1  LIG11       0.1166
     65 H          -6.9511    2.3131    5.3630 H       1  LIG11       0.0230
     66 H          -5.6957    2.4779    6.6007 H       1  LIG11       0.0230
     67 H          -6.1179    3.8641    5.5910 H       1  LIG11       0.0230
     68 H          -6.9798   -4.4894   -2.3024 H       1  LIG11       0.0660
     69 H          -7.7997   -3.2096   -3.2043 H       1  LIG11       0.0660
     70 H          -5.9994   -3.2250   -3.0512 H       1  LIG11       0.0660
@<TRIPOS>BOND
     1     1    16   ar
     2     2    16   ar
     3     3    28    1
     4     3    37    1
     5     4    32    1
     6     4    37    1
     7     5    31    1
     8     5    39    1
     9     6    36   ar
    10     7    36   ar
    11     8    13   ar
    12     8    20   ar
    13     9    10    1
    14     9    11    1
    15     9    16    1
    16    10    13    1
    17    10    14    1
    18    11    12    1
    19    11    15    1
    20    12    13   ar
    21    12    17   ar
    22    14    18   ar
    23    14    19   ar
    24    15    21   ar
    25    15    23   ar
    26    17    22   ar
    27    18    24    1
    28    18    25   ar
    29    19    29   ar
    30    20    22   ar
    31    20    26    1
    32    21    28   ar
    33    23    30   ar
    34    24    27    1
    35    25    31   ar
    36    26    33    1
    37    27    34    1
    38    27    36    1
    39    28    32   ar
    40    29    31   ar
    41    30    32   ar
    42    33    35    1
    43    35    38    1
    44     9    40    1
    45    10    41    1
    46    11    42    1
    47    17    43    1
    48    19    44    1
    49    21    45    1
    50    22    46    1
    51    23    47    1
    52    24    48    1
    53    24    49    1
    54    25    50    1
    55    26    51    1
    56    26    52    1
    57    27    53    1
    58    29    54    1
    59    30    55    1
    60    33    56    1
    61    33    57    1
    62    34    58    1
    63    34    59    1
    64    34    60    1
    65    35    61    1
    66    35    62    1
    67    37    63    1
    68    37    64    1
    69    38    65    1
    70    38    66    1
    71    38    67    1
    72    39    68    1
    73    39    69    1
    74    39    70    1
@<TRIPOS>MOLECULE
../1EDN/PCA1_17-21.pdb
 47 48 0 0 0
SMALL
GASTEIGER

@<TRIPOS>ATOM
      1  N         -4.6470   -0.3680   -1.6750 N.3    17  LEU17      -0.1231
      2  CA        -5.8920   -0.8550   -2.2480 C.3    17  LEU17       0.1693
      3  CB        -6.0770   -2.3450   -1.7480 C.3    17  LEU17       0.0284
      4  CG        -7.4170   -3.0590   -2.1890 C.3    17  LEU17       0.0019
      5  CD1       -7.4920   -3.1930   -3.7220 C.3    17  LEU17       0.0001
      6  CD2       -7.5340   -4.4610   -1.6100 C.3    17  LEU17       0.0001
      7  C         -7.0080    0.1010   -1.8270 C.2    17  LEU17       0.2592
      8  O         -7.6220    0.6590   -2.7680 O.2    17  LEU17      -0.2718
      9  N         -7.2890    0.1920   -0.5460 N.am   18  ASP18      -0.1960
     10  CA        -8.2730    1.1070    0.1120 C.3    18  ASP18       0.1840
     11  CB        -8.8290    0.4520    1.4200 C.3    18  ASP18       0.1450
     12  CG        -9.9140    1.2760    2.0640 C.2    18  ASP18       0.3671
     13  OD1      -10.8560    1.7240    1.3430 O.co2  18  ASP18      -0.2456
     14  OD2       -9.7710    1.5960    3.2830 O.co2  18  ASP18      -0.2456
     15  C         -7.6270    2.4530    0.4740 C.2    18  ASP18       0.2622
     16  O         -8.0770    3.4620   -0.0480 O.2    18  ASP18      -0.2715
     17  N         -6.6010    2.4770    1.3340 N.am   19  ILE19      -0.1963
     18  CA        -6.1660    3.6270    2.0790 C.3    19  ILE19       0.1727
     19  CB        -5.0730    3.3500    3.1520 C.3    19  ILE19       0.0290
     20  CG2       -4.5850    4.5470    3.9530 C.3    19  ILE19       0.0023
     21  CG1       -5.6210    2.1420    3.9730 C.3    19  ILE19       0.0022
     22  CD1       -6.7460    2.5740    4.8760 C.3    19  ILE19       0.0001
     23  C         -5.6740    4.7260    1.1170 C.2    19  ILE19       0.2616
     24  O         -5.9640    5.8590    1.4260 O.2    19  ILE19      -0.2715
     25  N         -4.8940    4.3400    0.1060 N.am   20  ILE20      -0.1963
     26  CA        -4.3700    5.1770   -0.9560 C.3    20  ILE20       0.1727
     27  CB        -2.8480    5.4620   -0.8180 C.3    20  ILE20       0.0290
     28  CG2       -2.5210    6.1670    0.5290 C.3    20  ILE20       0.0023
     29  CG1       -1.9270    4.2500   -0.9510 C.3    20  ILE20       0.0022
     30  CD1       -0.4520    4.4090   -1.0350 C.3    20  ILE20       0.0001
     31  C         -4.8260    4.7960   -2.3980 C.2    20  ILE20       0.2617
     32  O         -4.8210    3.6210   -2.7490 O.2    20  ILE20      -0.2715
     33  N         -5.1950    5.7710   -3.1960 N.am   21  TRP21      -0.1941
     34  CA        -5.6960    5.8160   -4.5740 C.3    21  TRP21       0.1982
     35  CB        -7.1930    6.0870   -4.6010 C.3    21  TRP21       0.0394
     36  CG        -8.1480    4.9210   -4.3560 C.3    21  TRP21       0.0475
     37  CD1       -8.4270    4.3170   -3.1580 C.3    21  TRP21       0.1166
     38  NE1       -9.4680    3.4340   -3.3480 N.pl3  21  TRP21      -0.2376
     39  CE2      -10.0400    3.5420   -4.5600 C.ar   21  TRP21       0.0614
     40  CZ2      -11.2420    2.9770   -5.0990 C.ar   21  TRP21       0.0158
     41  CH2      -11.3060    3.0240   -6.5170 C.ar   21  TRP21       0.0013
     42  CZ3      -10.3640    3.7270   -7.2650 C.ar   21  TRP21      -0.0002
     43  CE3       -9.2810    4.3830   -6.7050 C.ar   21  TRP21      -0.0030
     44  CD2       -9.0950    4.3440   -5.3390 C.ar   21  TRP21      -0.0059
     45  C         -4.8510    6.8160   -5.3910 C.2    21  TRP21       0.3842
     46  O         -5.0400    8.0490   -5.1500 O.co2  21  TRP21      -0.2437
     47  OXT       -3.9720    6.3760   -6.1010 O.co2  21  TRP21      -0.2437
@<TRIPOS>BOND
     1    42    43   ar
     2    42    41   ar
     3    43    44   ar
     4    41    40   ar
     5    47    45   ar
     6    45    46   ar
     7    45    34    1
     8    44    39   ar
     9    44    36    1
    10    40    39   ar
    11    35    34    1
    12    35    36    1
    13    34    33    1
    14    39    38    1
    15    36    37    1
    16     5     4    1
    17    38    37    1
    18    33    31   am
    19     8     7    2
    20    32    31    2
    21    31    26    1
    22     2     7    1
    23     2     3    1
    24     2     1    1
    25     4     3    1
    26     4     6    1
    27     7     9   am
    28    30    29    1
    29    26    27    1
    30    26    25    1
    31    29    27    1
    32    27    28    1
    33     9    10    1
    34    16    15    2
    35    25    23   am
    36    10    15    1
    37    10    11    1
    38    15    17   am
    39    23    24    2
    40    23    18    1
    41    17    18    1
    42    13    12   ar
    43    11    12    1
    44    12    14   ar
    45    18    19    1
    46    19    20    1
    47    19    21    1
    48    21    22    1
