@<TRIPOS>MOLECULE
156690
 70 73 0 0 0
SMALL
GASTEIGER

@<TRIPOS>ATOM
      1 S          -5.5698    5.3656    0.8216 S.O2    1  LIG11       0.0741
      2 O          -3.8532    5.4141   -6.2826 O.2     1  LIG11      -0.2756
      3 O          -6.7286    5.6682    0.0220 O.2     1  LIG11      -0.1499
      4 O          -5.2613    6.1278    2.0173 O.2     1  LIG11      -0.1499
      5 O          -9.0431    4.6365   -5.8239 O.2     1  LIG11      -0.4436
      6 O          -8.0330    2.5211    3.3398 O.2     1  LIG11      -0.3578
      7 N          -4.9319    7.2012   -5.3355 N.am    1  LIG11      -0.3002
      8 N          -5.4943    3.7265    1.2453 N.pl3   1  LIG11      -0.1965
      9 N          -9.9484    3.2646   -4.2759 N.ar    1  LIG11      -0.2175
     10 N          -7.6212    3.1785    2.1946 N.ar    1  LIG11      -0.0614
     11 C          -3.9349    7.2139   -8.8238 C.3     1  LIG11      -0.0295
     12 C          -5.0409    6.8103   -7.8172 C.3     1  LIG11       0.0290
     13 C          -3.1216    5.9865   -9.2728 C.3     1  LIG11      -0.0596
     14 C          -2.9841    8.2649   -8.2301 C.3     1  LIG11      -0.0596
     15 C          -4.6130    7.8172  -10.0709 C.3     1  LIG11      -0.0596
     16 C          -4.5439    6.4265   -6.4243 C.2     1  LIG11       0.2161
     17 C          -4.6739    6.6667   -3.9902 C.3     1  LIG11       0.0400
     18 C          -5.5840    5.5248   -3.5410 C.ar    1  LIG11      -0.0216
     19 C          -5.2704    4.7237   -2.4051 C.ar    1  LIG11      -0.0113
     20 C          -4.0768    4.9811   -1.5598 C.ar    1  LIG11       0.0090
     21 C          -5.6139    8.4859   -5.4024 C.3     1  LIG11       0.0035
     22 C          -6.7845    5.2709   -4.2436 C.ar    1  LIG11      -0.0442
     23 C          -4.0952    5.4088   -0.2109 C.ar    1  LIG11       0.1162
     24 C          -6.1265    3.6490   -2.0979 C.ar    1  LIG11      -0.0529
     25 C          -7.6583    4.2342   -3.8878 C.ar    1  LIG11       0.0372
     26 C          -7.3084    3.4218   -2.8114 C.ar    1  LIG11      -0.0489
     27 C          -2.8039    4.8075   -2.1440 C.ar    1  LIG11      -0.0521
     28 C          -2.9012    5.7583    0.4564 C.ar    1  LIG11      -0.0345
     29 C          -1.6217    5.1378   -1.4747 C.ar    1  LIG11      -0.0611
     30 C          -8.9066    4.0048   -4.6105 C.ar    1  LIG11       0.2271
     31 C          -1.6706    5.6362   -0.1816 C.ar    1  LIG11      -0.0599
     32 C          -6.2943    3.2586    2.2802 C.ar    1  LIG11       0.1837
     33 C          -5.8087    2.6853    3.4870 C.ar    1  LIG11       0.0342
     34 C          -6.9508    2.2180    4.1022 C.ar    1  LIG11       0.1390
     35 C          -4.4235    2.6090    4.0013 C.3     1  LIG11      -0.0330
     36 C         -10.2727    4.2536   -6.2649 C.ar    1  LIG11       0.1125
     37 C         -10.8245    3.4312   -5.3159 C.ar    1  LIG11       0.0663
     38 C          -7.2098    1.4918    5.3602 C.3     1  LIG11      -0.0034
     39 H          -4.5256    3.4188    1.2889 H       1  LIG11       0.1753
     40 H          -5.8076    7.5858   -7.7642 H       1  LIG11       0.0364
     41 H          -5.5812    5.9319   -8.1984 H       1  LIG11       0.0364
     42 H          -2.5446    5.5553   -8.4494 H       1  LIG11       0.0235
     43 H          -3.7758    5.2036   -9.6733 H       1  LIG11       0.0235
     44 H          -2.4083    6.2535  -10.0612 H       1  LIG11       0.0235
     45 H          -2.4291    7.8698   -7.3727 H       1  LIG11       0.0235
     46 H          -2.2447    8.5891   -8.9722 H       1  LIG11       0.0235
     47 H          -3.5311    9.1536   -7.8996 H       1  LIG11       0.0235
     48 H          -5.3060    7.1026  -10.5296 H       1  LIG11       0.0235
     49 H          -5.1819    8.7187   -9.8160 H       1  LIG11       0.0235
     50 H          -3.8734    8.0974  -10.8299 H       1  LIG11       0.0235
     51 H          -3.6343    6.3295   -4.0127 H       1  LIG11       0.0514
     52 H          -4.7397    7.4804   -3.2598 H       1  LIG11       0.0514
     53 H          -5.4815    8.9722   -6.3692 H       1  LIG11       0.0429
     54 H          -6.6774    8.3345   -5.2058 H       1  LIG11       0.0429
     55 H          -5.1935    9.1559   -4.6462 H       1  LIG11       0.0429
     56 H          -7.0541    5.8976   -5.0899 H       1  LIG11       0.0628
     57 H          -5.9062    2.9826   -1.2678 H       1  LIG11       0.0624
     58 H          -7.9664    2.6099   -2.5054 H       1  LIG11       0.0625
     59 H          -2.7264    4.4237   -3.1630 H       1  LIG11       0.0624
     60 H          -2.9174    6.1095    1.4871 H       1  LIG11       0.0637
     61 H          -0.6654    5.0161   -1.9763 H       1  LIG11       0.0618
     62 H          -0.7549    5.9075    0.3381 H       1  LIG11       0.0618
     63 H          -3.7082    3.0924    3.3283 H       1  LIG11       0.0280
     64 H          -4.3526    3.1135    4.9712 H       1  LIG11       0.0280
     65 H          -4.1144    1.5681    4.1332 H       1  LIG11       0.0280
     66 H         -10.5856    4.6391   -7.2230 H       1  LIG11       0.1046
     67 H         -11.7946    2.9550   -5.3263 H       1  LIG11       0.0862
     68 H          -8.2096    1.0487    5.3687 H       1  LIG11       0.0309
     69 H          -6.4866    0.6861    5.4947 H       1  LIG11       0.0309
     70 H          -7.1266    2.1710    6.2156 H       1  LIG11       0.0309
@<TRIPOS>BOND
     1     1     3    2
     2     1     4    2
     3     1     8    1
     4     1    23    1
     5     2    16    2
     6     5    30   ar
     7     5    36   ar
     8     6    10   ar
     9     6    34   ar
    10     7    16   am
    11     7    17    1
    12     7    21    1
    13     8    32    1
    14     9    30   ar
    15     9    37   ar
    16    10    32   ar
    17    11    12    1
    18    11    13    1
    19    11    14    1
    20    11    15    1
    21    12    16    1
    22    17    18    1
    23    18    19   ar
    24    18    22   ar
    25    19    20    1
    26    19    24   ar
    27    20    23   ar
    28    20    27   ar
    29    22    25   ar
    30    23    28   ar
    31    24    26   ar
    32    25    26   ar
    33    25    30    1
    34    27    29   ar
    35    28    31   ar
    36    29    31   ar
    37    32    33   ar
    38    33    34   ar
    39    33    35    1
    40    34    38    1
    41    36    37   ar
    42     8    39    1
    43    12    40    1
    44    12    41    1
    45    13    42    1
    46    13    43    1
    47    13    44    1
    48    14    45    1
    49    14    46    1
    50    14    47    1
    51    15    48    1
    52    15    49    1
    53    15    50    1
    54    17    51    1
    55    17    52    1
    56    21    53    1
    57    21    54    1
    58    21    55    1
    59    22    56    1
    60    24    57    1
    61    26    58    1
    62    27    59    1
    63    28    60    1
    64    29    61    1
    65    31    62    1
    66    35    63    1
    67    35    64    1
    68    35    65    1
    69    36    66    1
    70    37    67    1
    71    38    68    1
    72    38    69    1
    73    38    70    1
@<TRIPOS>MOLECULE
../1EDN/PCA1_17-21.pdb
 47 48 0 0 0
SMALL
GASTEIGER

@<TRIPOS>ATOM
      1  N         -4.6470   -0.3680   -1.6750 N.3    17  LEU17      -0.1231
      2  CA        -5.8920   -0.8550   -2.2480 C.3    17  LEU17       0.1693
      3  CB        -6.0770   -2.3450   -1.7480 C.3    17  LEU17       0.0284
      4  CG        -7.4170   -3.0590   -2.1890 C.3    17  LEU17       0.0019
      5  CD1       -7.4920   -3.1930   -3.7220 C.3    17  LEU17       0.0001
      6  CD2       -7.5340   -4.4610   -1.6100 C.3    17  LEU17       0.0001
      7  C         -7.0080    0.1010   -1.8270 C.2    17  LEU17       0.2592
      8  O         -7.6220    0.6590   -2.7680 O.2    17  LEU17      -0.2718
      9  N         -7.2890    0.1920   -0.5460 N.am   18  ASP18      -0.1960
     10  CA        -8.2730    1.1070    0.1120 C.3    18  ASP18       0.1840
     11  CB        -8.8290    0.4520    1.4200 C.3    18  ASP18       0.1450
     12  CG        -9.9140    1.2760    2.0640 C.2    18  ASP18       0.3671
     13  OD1      -10.8560    1.7240    1.3430 O.co2  18  ASP18      -0.2456
     14  OD2       -9.7710    1.5960    3.2830 O.co2  18  ASP18      -0.2456
     15  C         -7.6270    2.4530    0.4740 C.2    18  ASP18       0.2622
     16  O         -8.0770    3.4620   -0.0480 O.2    18  ASP18      -0.2715
     17  N         -6.6010    2.4770    1.3340 N.am   19  ILE19      -0.1963
     18  CA        -6.1660    3.6270    2.0790 C.3    19  ILE19       0.1727
     19  CB        -5.0730    3.3500    3.1520 C.3    19  ILE19       0.0290
     20  CG2       -4.5850    4.5470    3.9530 C.3    19  ILE19       0.0023
     21  CG1       -5.6210    2.1420    3.9730 C.3    19  ILE19       0.0022
     22  CD1       -6.7460    2.5740    4.8760 C.3    19  ILE19       0.0001
     23  C         -5.6740    4.7260    1.1170 C.2    19  ILE19       0.2616
     24  O         -5.9640    5.8590    1.4260 O.2    19  ILE19      -0.2715
     25  N         -4.8940    4.3400    0.1060 N.am   20  ILE20      -0.1963
     26  CA        -4.3700    5.1770   -0.9560 C.3    20  ILE20       0.1727
     27  CB        -2.8480    5.4620   -0.8180 C.3    20  ILE20       0.0290
     28  CG2       -2.5210    6.1670    0.5290 C.3    20  ILE20       0.0023
     29  CG1       -1.9270    4.2500   -0.9510 C.3    20  ILE20       0.0022
     30  CD1       -0.4520    4.4090   -1.0350 C.3    20  ILE20       0.0001
     31  C         -4.8260    4.7960   -2.3980 C.2    20  ILE20       0.2617
     32  O         -4.8210    3.6210   -2.7490 O.2    20  ILE20      -0.2715
     33  N         -5.1950    5.7710   -3.1960 N.am   21  TRP21      -0.1941
     34  CA        -5.6960    5.8160   -4.5740 C.3    21  TRP21       0.1982
     35  CB        -7.1930    6.0870   -4.6010 C.3    21  TRP21       0.0394
     36  CG        -8.1480    4.9210   -4.3560 C.3    21  TRP21       0.0475
     37  CD1       -8.4270    4.3170   -3.1580 C.3    21  TRP21       0.1166
     38  NE1       -9.4680    3.4340   -3.3480 N.pl3  21  TRP21      -0.2376
     39  CE2      -10.0400    3.5420   -4.5600 C.ar   21  TRP21       0.0614
     40  CZ2      -11.2420    2.9770   -5.0990 C.ar   21  TRP21       0.0158
     41  CH2      -11.3060    3.0240   -6.5170 C.ar   21  TRP21       0.0013
     42  CZ3      -10.3640    3.7270   -7.2650 C.ar   21  TRP21      -0.0002
     43  CE3       -9.2810    4.3830   -6.7050 C.ar   21  TRP21      -0.0030
     44  CD2       -9.0950    4.3440   -5.3390 C.ar   21  TRP21      -0.0059
     45  C         -4.8510    6.8160   -5.3910 C.2    21  TRP21       0.3842
     46  O         -5.0400    8.0490   -5.1500 O.co2  21  TRP21      -0.2437
     47  OXT       -3.9720    6.3760   -6.1010 O.co2  21  TRP21      -0.2437
@<TRIPOS>BOND
     1    42    43   ar
     2    42    41   ar
     3    43    44   ar
     4    41    40   ar
     5    47    45   ar
     6    45    46   ar
     7    45    34    1
     8    44    39   ar
     9    44    36    1
    10    40    39   ar
    11    35    34    1
    12    35    36    1
    13    34    33    1
    14    39    38    1
    15    36    37    1
    16     5     4    1
    17    38    37    1
    18    33    31   am
    19     8     7    2
    20    32    31    2
    21    31    26    1
    22     2     7    1
    23     2     3    1
    24     2     1    1
    25     4     3    1
    26     4     6    1
    27     7     9   am
    28    30    29    1
    29    26    27    1
    30    26    25    1
    31    29    27    1
    32    27    28    1
    33     9    10    1
    34    16    15    2
    35    25    23   am
    36    10    15    1
    37    10    11    1
    38    15    17   am
    39    23    24    2
    40    23    18    1
    41    17    18    1
    42    13    12   ar
    43    11    12    1
    44    12    14   ar
    45    18    19    1
    46    19    20    1
    47    19    21    1
    48    21    22    1
