@<TRIPOS>MOLECULE
108002
 64 68 0 0 0
SMALL
GASTEIGER

@<TRIPOS>ATOM
      1 O          -9.7038    0.4843    1.7487 O.co2   1  LIG11      -0.5495
      2 O         -10.0052    2.6132    2.4864 O.co2   1  LIG11      -0.5495
      3 O          -4.0438    5.2918   -1.5348 O.3     1  LIG11      -0.4920
      4 O          -8.3963    2.3181   -2.5911 O.3     1  LIG11      -0.4858
      5 O          -3.6206    1.5699    5.5837 O.3     1  LIG11      -0.4526
      6 O          -5.1587    1.1783    7.4030 O.3     1  LIG11      -0.4526
      7 O          -6.9031   -2.1888   -3.2941 O.3     1  LIG11      -0.4950
      8 O         -10.1595    3.7922   -5.1853 O.co2   1  LIG11      -0.5463
      9 O          -8.2990    4.7223   -4.2497 O.co2   1  LIG11      -0.5463
     10 C          -7.8591    1.9505    1.6778 C.3     1  LIG11       0.0203
     11 C          -7.6490    2.3096    0.1723 C.3     1  LIG11       0.0218
     12 C          -7.2910    3.1113    2.5248 C.3     1  LIG11       0.0184
     13 C          -6.4884    3.2873    0.2620 C.ar    1  LIG11      -0.0320
     14 C          -6.3154    3.7558    1.5686 C.ar    1  LIG11      -0.0353
     15 C          -6.7026    2.5964    3.8421 C.ar    1  LIG11      -0.0356
     16 C          -7.3861    1.1338   -0.7760 C.ar    1  LIG11       0.0026
     17 C          -9.3351    1.6761    1.9670 C.2     1  LIG11       0.0466
     18 C          -5.7213    3.8115   -0.7755 C.ar    1  LIG11      -0.0159
     19 C          -5.4124    4.7762    1.8495 C.ar    1  LIG11      -0.0542
     20 C          -4.7546    4.7777   -0.4839 C.ar    1  LIG11       0.1208
     21 C          -7.8178    1.1553   -2.1237 C.ar    1  LIG11       0.1283
     22 C          -5.3356    2.3112    4.0154 C.ar    1  LIG11      -0.0124
     23 C          -7.5906    2.3469    4.9184 C.ar    1  LIG11      -0.0543
     24 C          -4.6248    5.2825    0.8171 C.ar    1  LIG11      -0.0196
     25 C          -6.6792   -0.0025   -0.3306 C.ar    1  LIG11      -0.0510
     26 C          -4.9089    1.8532    5.2454 C.ar    1  LIG11       0.1665
     27 C          -7.1346    1.8572    6.1473 C.ar    1  LIG11      -0.0159
     28 C          -7.6324    0.0146   -2.9267 C.ar    1  LIG11       0.0221
     29 C          -6.4979   -1.1244   -1.1413 C.ar    1  LIG11      -0.0194
     30 C          -5.7839    1.6327    6.2826 C.ar    1  LIG11       0.1662
     31 C          -7.0099   -1.1297   -2.4300 C.ar    1  LIG11       0.1236
     32 C          -2.6292    5.2796   -1.3453 C.3     1  LIG11       0.0893
     33 C          -3.7890    1.1672    6.9556 C.3     1  LIG11       0.2332
     34 C          -8.6696    2.3682   -4.0085 C.3     1  LIG11       0.1287
     35 C          -2.0059    6.3420   -2.2486 C.3     1  LIG11      -0.0215
     36 C          -9.0988    3.7713   -4.4832 C.2     1  LIG11       0.0789
     37 C          -7.0810   -3.4553   -2.6678 C.3     1  LIG11       0.0788
     38 C          -2.5142    7.7410   -1.9254 C.3     1  LIG11      -0.0622
     39 H          -7.3232    1.0382    1.9598 H       1  LIG11       0.0379
     40 H          -8.5310    2.8634   -0.1772 H       1  LIG11       0.0405
     41 H          -8.0377    3.8812    2.7567 H       1  LIG11       0.0404
     42 H          -5.8932    3.5003   -1.8029 H       1  LIG11       0.0657
     43 H          -5.3368    5.1844    2.8518 H       1  LIG11       0.0622
     44 H          -4.6202    2.4418    3.2112 H       1  LIG11       0.0658
     45 H          -8.6593    2.5214    4.7773 H       1  LIG11       0.0622
     46 H          -3.9484    6.1035    1.0259 H       1  LIG11       0.0654
     47 H          -6.2650   -0.0394    0.6717 H       1  LIG11       0.0623
     48 H          -7.8277    1.6567    6.9545 H       1  LIG11       0.0655
     49 H          -7.9896   -0.0175   -3.9496 H       1  LIG11       0.0691
     50 H          -5.9595   -1.9727   -0.7370 H       1  LIG11       0.0654
     51 H          -2.2490    4.2911   -1.6292 H       1  LIG11       0.0696
     52 H          -2.3240    5.4719   -0.3107 H       1  LIG11       0.0696
     53 H          -3.2106    1.8477    7.5923 H       1  LIG11       0.1166
     54 H          -3.3879    0.1544    7.0757 H       1  LIG11       0.1166
     55 H          -9.4704    1.6570   -4.2442 H       1  LIG11       0.0760
     56 H          -7.7646    2.1230   -4.5786 H       1  LIG11       0.0760
     57 H          -2.2432    6.1202   -3.2953 H       1  LIG11       0.0295
     58 H          -0.9158    6.3174   -2.1419 H       1  LIG11       0.0295
     59 H          -7.2836   -4.1897   -3.4535 H       1  LIG11       0.0660
     60 H          -7.9359   -3.4574   -1.9818 H       1  LIG11       0.0660
     61 H          -6.1661   -3.7653   -2.1530 H       1  LIG11       0.0660
     62 H          -3.5912    7.8233   -2.1053 H       1  LIG11       0.0231
     63 H          -2.0131    8.4819   -2.5558 H       1  LIG11       0.0231
     64 H          -2.3219    7.9971   -0.8785 H       1  LIG11       0.0231
@<TRIPOS>BOND
     1     1    17   ar
     2     2    17   ar
     3     3    20    1
     4     3    32    1
     5     4    21    1
     6     4    34    1
     7     5    26    1
     8     5    33    1
     9     6    30    1
    10     6    33    1
    11     7    31    1
    12     7    37    1
    13     8    36   ar
    14     9    36   ar
    15    10    11    1
    16    10    12    1
    17    10    17    1
    18    11    13    1
    19    11    16    1
    20    12    14    1
    21    12    15    1
    22    13    14   ar
    23    13    18   ar
    24    14    19   ar
    25    15    22   ar
    26    15    23   ar
    27    16    21   ar
    28    16    25   ar
    29    18    20   ar
    30    19    24   ar
    31    20    24   ar
    32    21    28   ar
    33    22    26   ar
    34    23    27   ar
    35    25    29   ar
    36    26    30   ar
    37    27    30   ar
    38    28    31   ar
    39    29    31   ar
    40    32    35    1
    41    34    36    1
    42    35    38    1
    43    10    39    1
    44    11    40    1
    45    12    41    1
    46    18    42    1
    47    19    43    1
    48    22    44    1
    49    23    45    1
    50    24    46    1
    51    25    47    1
    52    27    48    1
    53    28    49    1
    54    29    50    1
    55    32    51    1
    56    32    52    1
    57    33    53    1
    58    33    54    1
    59    34    55    1
    60    34    56    1
    61    35    57    1
    62    35    58    1
    63    37    59    1
    64    37    60    1
    65    37    61    1
    66    38    62    1
    67    38    63    1
    68    38    64    1
@<TRIPOS>MOLECULE
../1EDN/PCA1_17-21.pdb
 47 48 0 0 0
SMALL
GASTEIGER

@<TRIPOS>ATOM
      1  N         -4.6470   -0.3680   -1.6750 N.3    17  LEU17      -0.1231
      2  CA        -5.8920   -0.8550   -2.2480 C.3    17  LEU17       0.1693
      3  CB        -6.0770   -2.3450   -1.7480 C.3    17  LEU17       0.0284
      4  CG        -7.4170   -3.0590   -2.1890 C.3    17  LEU17       0.0019
      5  CD1       -7.4920   -3.1930   -3.7220 C.3    17  LEU17       0.0001
      6  CD2       -7.5340   -4.4610   -1.6100 C.3    17  LEU17       0.0001
      7  C         -7.0080    0.1010   -1.8270 C.2    17  LEU17       0.2592
      8  O         -7.6220    0.6590   -2.7680 O.2    17  LEU17      -0.2718
      9  N         -7.2890    0.1920   -0.5460 N.am   18  ASP18      -0.1960
     10  CA        -8.2730    1.1070    0.1120 C.3    18  ASP18       0.1840
     11  CB        -8.8290    0.4520    1.4200 C.3    18  ASP18       0.1450
     12  CG        -9.9140    1.2760    2.0640 C.2    18  ASP18       0.3671
     13  OD1      -10.8560    1.7240    1.3430 O.co2  18  ASP18      -0.2456
     14  OD2       -9.7710    1.5960    3.2830 O.co2  18  ASP18      -0.2456
     15  C         -7.6270    2.4530    0.4740 C.2    18  ASP18       0.2622
     16  O         -8.0770    3.4620   -0.0480 O.2    18  ASP18      -0.2715
     17  N         -6.6010    2.4770    1.3340 N.am   19  ILE19      -0.1963
     18  CA        -6.1660    3.6270    2.0790 C.3    19  ILE19       0.1727
     19  CB        -5.0730    3.3500    3.1520 C.3    19  ILE19       0.0290
     20  CG2       -4.5850    4.5470    3.9530 C.3    19  ILE19       0.0023
     21  CG1       -5.6210    2.1420    3.9730 C.3    19  ILE19       0.0022
     22  CD1       -6.7460    2.5740    4.8760 C.3    19  ILE19       0.0001
     23  C         -5.6740    4.7260    1.1170 C.2    19  ILE19       0.2616
     24  O         -5.9640    5.8590    1.4260 O.2    19  ILE19      -0.2715
     25  N         -4.8940    4.3400    0.1060 N.am   20  ILE20      -0.1963
     26  CA        -4.3700    5.1770   -0.9560 C.3    20  ILE20       0.1727
     27  CB        -2.8480    5.4620   -0.8180 C.3    20  ILE20       0.0290
     28  CG2       -2.5210    6.1670    0.5290 C.3    20  ILE20       0.0023
     29  CG1       -1.9270    4.2500   -0.9510 C.3    20  ILE20       0.0022
     30  CD1       -0.4520    4.4090   -1.0350 C.3    20  ILE20       0.0001
     31  C         -4.8260    4.7960   -2.3980 C.2    20  ILE20       0.2617
     32  O         -4.8210    3.6210   -2.7490 O.2    20  ILE20      -0.2715
     33  N         -5.1950    5.7710   -3.1960 N.am   21  TRP21      -0.1941
     34  CA        -5.6960    5.8160   -4.5740 C.3    21  TRP21       0.1982
     35  CB        -7.1930    6.0870   -4.6010 C.3    21  TRP21       0.0394
     36  CG        -8.1480    4.9210   -4.3560 C.3    21  TRP21       0.0475
     37  CD1       -8.4270    4.3170   -3.1580 C.3    21  TRP21       0.1166
     38  NE1       -9.4680    3.4340   -3.3480 N.pl3  21  TRP21      -0.2376
     39  CE2      -10.0400    3.5420   -4.5600 C.ar   21  TRP21       0.0614
     40  CZ2      -11.2420    2.9770   -5.0990 C.ar   21  TRP21       0.0158
     41  CH2      -11.3060    3.0240   -6.5170 C.ar   21  TRP21       0.0013
     42  CZ3      -10.3640    3.7270   -7.2650 C.ar   21  TRP21      -0.0002
     43  CE3       -9.2810    4.3830   -6.7050 C.ar   21  TRP21      -0.0030
     44  CD2       -9.0950    4.3440   -5.3390 C.ar   21  TRP21      -0.0059
     45  C         -4.8510    6.8160   -5.3910 C.2    21  TRP21       0.3842
     46  O         -5.0400    8.0490   -5.1500 O.co2  21  TRP21      -0.2437
     47  OXT       -3.9720    6.3760   -6.1010 O.co2  21  TRP21      -0.2437
@<TRIPOS>BOND
     1    42    43   ar
     2    42    41   ar
     3    43    44   ar
     4    41    40   ar
     5    47    45   ar
     6    45    46   ar
     7    45    34    1
     8    44    39   ar
     9    44    36    1
    10    40    39   ar
    11    35    34    1
    12    35    36    1
    13    34    33    1
    14    39    38    1
    15    36    37    1
    16     5     4    1
    17    38    37    1
    18    33    31   am
    19     8     7    2
    20    32    31    2
    21    31    26    1
    22     2     7    1
    23     2     3    1
    24     2     1    1
    25     4     3    1
    26     4     6    1
    27     7     9   am
    28    30    29    1
    29    26    27    1
    30    26    25    1
    31    29    27    1
    32    27    28    1
    33     9    10    1
    34    16    15    2
    35    25    23   am
    36    10    15    1
    37    10    11    1
    38    15    17   am
    39    23    24    2
    40    23    18    1
    41    17    18    1
    42    13    12   ar
    43    11    12    1
    44    12    14   ar
    45    18    19    1
    46    19    20    1
    47    19    21    1
    48    21    22    1
