@<TRIPOS>MOLECULE
9939443
 70 74 0 0 0
SMALL
GASTEIGER

@<TRIPOS>ATOM
      1 S          -7.6875    1.3278    0.4126 S.O2    1  LIG11       0.0908
      2 O          -4.7710    3.2562    1.4746 O.3     1  LIG11      -0.4435
      3 O          -8.2054    1.2226   -0.9378 O.2     1  LIG11      -0.1484
      4 O          -6.4772    0.6430    0.8217 O.2     1  LIG11      -0.1484
      5 O          -3.3639    5.1522   -0.1742 O.3     1  LIG11      -0.4715
      6 O          -6.4590    3.3014    3.6861 O.3     1  LIG11      -0.4914
      7 O          -1.4713    8.2704   -0.5191 O.3     1  LIG11      -0.3917
      8 N          -7.5530    2.9600    0.8347 N.pl3   1  LIG11      -0.1950
      9 N          -9.8344    1.8042    1.9222 N.ar    1  LIG11      -0.2351
     10 N          -7.2188    4.1481   -1.0926 N.ar    1  LIG11      -0.2073
     11 N          -5.1821    5.2337   -1.5856 N.ar    1  LIG11      -0.1899
     12 N          -7.5306    5.4846   -6.0087 N.ar    1  LIG11      -0.2552
     13 N          -9.7564    4.0782   -7.1260 N.ar    1  LIG11      -0.5621
     14 N         -10.4575    3.4544   -5.0687 N.ar    1  LIG11      -0.1535
     15 N         -10.9062    3.3977   -7.1249 N.ar    1  LIG11      -0.3597
     16 N         -11.3635    3.0120   -5.9296 N.ar    1  LIG11      -0.0878
     17 C         -12.0372   -0.1041    4.3562 C.3     1  LIG11      -0.0201
     18 C         -10.9462    0.1542    3.3312 C.ar    1  LIG11      -0.0266
     19 C         -11.6257    0.4442    5.7267 C.3     1  LIG11      -0.0586
     20 C         -12.4586   -1.5717    4.4949 C.3     1  LIG11      -0.0586
     21 C          -9.0069    0.8019    1.5127 C.ar    1  LIG11       0.1969
     22 C         -10.0605   -0.8315    2.8722 C.ar    1  LIG11      -0.0535
     23 C         -10.7799    1.4462    2.8190 C.ar    1  LIG11       0.0332
     24 C          -9.0674   -0.5089    1.9495 C.ar    1  LIG11      -0.0160
     25 C          -6.6481    3.7062    0.0445 C.ar    1  LIG11       0.1882
     26 C          -5.3400    3.9430    0.4350 C.ar    1  LIG11       0.2307
     27 C          -4.6692    4.7897   -0.4209 C.ar    1  LIG11       0.2641
     28 C          -6.4226    4.8457   -1.9088 C.ar    1  LIG11       0.1659
     29 C          -6.8518    5.1040   -3.2961 C.ar    1  LIG11       0.0227
     30 C          -4.4272    3.9687    2.6004 C.ar    1  LIG11       0.1702
     31 C          -8.0072    4.5239   -3.8449 C.ar    1  LIG11      -0.0252
     32 C          -6.0614    5.8869   -4.1543 C.ar    1  LIG11      -0.0328
     33 C          -3.1314    6.5189   -0.5446 C.3     1  LIG11       0.1143
     34 C          -5.2595    3.9627    3.7237 C.ar    1  LIG11       0.1621
     35 C          -8.3092    4.7259   -5.1926 C.ar    1  LIG11       0.0708
     36 C          -3.1464    4.5155    2.7132 C.ar    1  LIG11      -0.0157
     37 C          -6.4315    6.0441   -5.4764 C.ar    1  LIG11       0.0289
     38 C          -1.7038    6.9077   -0.1825 C.3     1  LIG11       0.0783
     39 C          -4.8732    4.6202    4.8959 C.ar    1  LIG11      -0.0163
     40 C          -2.7509    5.1632    3.8861 C.ar    1  LIG11      -0.0581
     41 C          -3.6204    5.2280    4.9728 C.ar    1  LIG11      -0.0581
     42 C          -9.4855    4.1017   -5.8044 C.ar    1  LIG11       0.0207
     43 C          -6.3801    2.0968    4.4529 C.3     1  LIG11       0.0790
     44 H          -0.5388    8.4607   -0.3187 H       1  LIG11       0.2095
     45 H          -8.4903    3.3657    0.8154 H       1  LIG11       0.1754
     46 H         -11.4059    3.1839   -7.9832 H       1  LIG11       0.1651
     47 H         -12.9310    0.4426    4.0244 H       1  LIG11       0.0344
     48 H         -10.7172   -0.0449    6.0961 H       1  LIG11       0.0235
     49 H         -11.4287    1.5211    5.6837 H       1  LIG11       0.0235
     50 H         -12.4200    0.2850    6.4643 H       1  LIG11       0.0235
     51 H         -11.6563   -2.1880    4.9153 H       1  LIG11       0.0235
     52 H         -13.3218   -1.6605    5.1641 H       1  LIG11       0.0235
     53 H         -12.7442   -1.9952    3.5261 H       1  LIG11       0.0235
     54 H         -10.1225   -1.8564    3.2281 H       1  LIG11       0.0622
     55 H         -11.4276    2.2602    3.1394 H       1  LIG11       0.0833
     56 H          -8.3639   -1.2536    1.5938 H       1  LIG11       0.0653
     57 H          -8.6440    3.8882   -3.2327 H       1  LIG11       0.0646
     58 H          -5.1445    6.3548   -3.8050 H       1  LIG11       0.0640
     59 H          -3.2628    6.6715   -1.6237 H       1  LIG11       0.0720
     60 H          -3.8324    7.1804   -0.0172 H       1  LIG11       0.0720
     61 H          -2.4342    4.4156    1.9008 H       1  LIG11       0.0655
     62 H          -5.8273    6.6308   -6.1626 H       1  LIG11       0.0830
     63 H          -0.9908    6.2798   -0.7267 H       1  LIG11       0.0591
     64 H          -1.5238    6.7699    0.8883 H       1  LIG11       0.0591
     65 H          -5.5377    4.6422    5.7547 H       1  LIG11       0.0655
     66 H          -1.7579    5.5997    3.9564 H       1  LIG11       0.0619
     67 H          -3.3119    5.7262    5.8884 H       1  LIG11       0.0619
     68 H          -7.2074    1.4479    4.1523 H       1  LIG11       0.0660
     69 H          -5.4438    1.5530    4.2773 H       1  LIG11       0.0660
     70 H          -6.4939    2.3161    5.5201 H       1  LIG11       0.0660
@<TRIPOS>BOND
     1     1    21    1
     2     1     8    1
     3     1     4    2
     4     1     3    2
     5     2    26    1
     6     2    30    1
     7     5    27    1
     8     5    33    1
     9     6    34    1
    10     6    43    1
    11     7    38    1
    12     8    25    1
    13     9    23   ar
    14     9    21   ar
    15    10    25   ar
    16    10    28   ar
    17    11    27   ar
    18    11    28   ar
    19    12    37   ar
    20    12    35   ar
    21    13    15   ar
    22    13    42   ar
    23    14    42   ar
    24    14    16   ar
    25    15    16   ar
    26    17    18    1
    27    17    20    1
    28    17    19    1
    29    18    23   ar
    30    18    22   ar
    31    21    24   ar
    32    22    24   ar
    33    25    26   ar
    34    26    27   ar
    35    28    29    1
    36    29    31   ar
    37    29    32   ar
    38    30    36   ar
    39    30    34   ar
    40    31    35   ar
    41    32    37   ar
    42    33    38    1
    43    34    39   ar
    44    35    42    1
    45    36    40   ar
    46    39    41   ar
    47    40    41   ar
    48     7    44    1
    49     8    45    1
    50    15    46    1
    51    17    47    1
    52    19    48    1
    53    19    49    1
    54    19    50    1
    55    20    51    1
    56    20    52    1
    57    20    53    1
    58    22    54    1
    59    23    55    1
    60    24    56    1
    61    31    57    1
    62    32    58    1
    63    33    59    1
    64    33    60    1
    65    36    61    1
    66    37    62    1
    67    38    63    1
    68    38    64    1
    69    39    65    1
    70    40    66    1
    71    41    67    1
    72    43    68    1
    73    43    69    1
    74    43    70    1
@<TRIPOS>MOLECULE
../1EDN/PCA1_17-21.pdb
 47 48 0 0 0
SMALL
GASTEIGER

@<TRIPOS>ATOM
      1  N         -4.6470   -0.3680   -1.6750 N.3    17  LEU17      -0.1231
      2  CA        -5.8920   -0.8550   -2.2480 C.3    17  LEU17       0.1693
      3  CB        -6.0770   -2.3450   -1.7480 C.3    17  LEU17       0.0284
      4  CG        -7.4170   -3.0590   -2.1890 C.3    17  LEU17       0.0019
      5  CD1       -7.4920   -3.1930   -3.7220 C.3    17  LEU17       0.0001
      6  CD2       -7.5340   -4.4610   -1.6100 C.3    17  LEU17       0.0001
      7  C         -7.0080    0.1010   -1.8270 C.2    17  LEU17       0.2592
      8  O         -7.6220    0.6590   -2.7680 O.2    17  LEU17      -0.2718
      9  N         -7.2890    0.1920   -0.5460 N.am   18  ASP18      -0.1960
     10  CA        -8.2730    1.1070    0.1120 C.3    18  ASP18       0.1840
     11  CB        -8.8290    0.4520    1.4200 C.3    18  ASP18       0.1450
     12  CG        -9.9140    1.2760    2.0640 C.2    18  ASP18       0.3671
     13  OD1      -10.8560    1.7240    1.3430 O.co2  18  ASP18      -0.2456
     14  OD2       -9.7710    1.5960    3.2830 O.co2  18  ASP18      -0.2456
     15  C         -7.6270    2.4530    0.4740 C.2    18  ASP18       0.2622
     16  O         -8.0770    3.4620   -0.0480 O.2    18  ASP18      -0.2715
     17  N         -6.6010    2.4770    1.3340 N.am   19  ILE19      -0.1963
     18  CA        -6.1660    3.6270    2.0790 C.3    19  ILE19       0.1727
     19  CB        -5.0730    3.3500    3.1520 C.3    19  ILE19       0.0290
     20  CG2       -4.5850    4.5470    3.9530 C.3    19  ILE19       0.0023
     21  CG1       -5.6210    2.1420    3.9730 C.3    19  ILE19       0.0022
     22  CD1       -6.7460    2.5740    4.8760 C.3    19  ILE19       0.0001
     23  C         -5.6740    4.7260    1.1170 C.2    19  ILE19       0.2616
     24  O         -5.9640    5.8590    1.4260 O.2    19  ILE19      -0.2715
     25  N         -4.8940    4.3400    0.1060 N.am   20  ILE20      -0.1963
     26  CA        -4.3700    5.1770   -0.9560 C.3    20  ILE20       0.1727
     27  CB        -2.8480    5.4620   -0.8180 C.3    20  ILE20       0.0290
     28  CG2       -2.5210    6.1670    0.5290 C.3    20  ILE20       0.0023
     29  CG1       -1.9270    4.2500   -0.9510 C.3    20  ILE20       0.0022
     30  CD1       -0.4520    4.4090   -1.0350 C.3    20  ILE20       0.0001
     31  C         -4.8260    4.7960   -2.3980 C.2    20  ILE20       0.2617
     32  O         -4.8210    3.6210   -2.7490 O.2    20  ILE20      -0.2715
     33  N         -5.1950    5.7710   -3.1960 N.am   21  TRP21      -0.1941
     34  CA        -5.6960    5.8160   -4.5740 C.3    21  TRP21       0.1982
     35  CB        -7.1930    6.0870   -4.6010 C.3    21  TRP21       0.0394
     36  CG        -8.1480    4.9210   -4.3560 C.3    21  TRP21       0.0475
     37  CD1       -8.4270    4.3170   -3.1580 C.3    21  TRP21       0.1166
     38  NE1       -9.4680    3.4340   -3.3480 N.pl3  21  TRP21      -0.2376
     39  CE2      -10.0400    3.5420   -4.5600 C.ar   21  TRP21       0.0614
     40  CZ2      -11.2420    2.9770   -5.0990 C.ar   21  TRP21       0.0158
     41  CH2      -11.3060    3.0240   -6.5170 C.ar   21  TRP21       0.0013
     42  CZ3      -10.3640    3.7270   -7.2650 C.ar   21  TRP21      -0.0002
     43  CE3       -9.2810    4.3830   -6.7050 C.ar   21  TRP21      -0.0030
     44  CD2       -9.0950    4.3440   -5.3390 C.ar   21  TRP21      -0.0059
     45  C         -4.8510    6.8160   -5.3910 C.2    21  TRP21       0.3842
     46  O         -5.0400    8.0490   -5.1500 O.co2  21  TRP21      -0.2437
     47  OXT       -3.9720    6.3760   -6.1010 O.co2  21  TRP21      -0.2437
@<TRIPOS>BOND
     1    42    43   ar
     2    42    41   ar
     3    43    44   ar
     4    41    40   ar
     5    47    45   ar
     6    45    46   ar
     7    45    34    1
     8    44    39   ar
     9    44    36    1
    10    40    39   ar
    11    35    34    1
    12    35    36    1
    13    34    33    1
    14    39    38    1
    15    36    37    1
    16     5     4    1
    17    38    37    1
    18    33    31   am
    19     8     7    2
    20    32    31    2
    21    31    26    1
    22     2     7    1
    23     2     3    1
    24     2     1    1
    25     4     3    1
    26     4     6    1
    27     7     9   am
    28    30    29    1
    29    26    27    1
    30    26    25    1
    31    29    27    1
    32    27    28    1
    33     9    10    1
    34    16    15    2
    35    25    23   am
    36    10    15    1
    37    10    11    1
    38    15    17   am
    39    23    24    2
    40    23    18    1
    41    17    18    1
    42    13    12   ar
    43    11    12    1
    44    12    14   ar
    45    18    19    1
    46    19    20    1
    47    19    21    1
    48    21    22    1
