@<TRIPOS>MOLECULE
104865
 68 71 0 0 0
SMALL
GASTEIGER

@<TRIPOS>ATOM
      1 S          -3.6318    5.1467   -0.5586 S.O2    1  LIG11       0.0736
      2 O          -2.2024    5.2096   -0.3267 O.2     1  LIG11      -0.1499
      3 O          -4.3678    6.3118   -1.0015 O.2     1  LIG11      -0.1499
      4 O          -4.9765    5.2620   -3.7972 O.3     1  LIG11      -0.4435
      5 O          -7.6707    4.5705   -4.5257 O.3     1  LIG11      -0.4715
      6 O          -4.3440    5.9292   -6.3173 O.3     1  LIG11      -0.4914
      7 O          -9.6655    4.3790   -6.7389 O.3     1  LIG11      -0.3917
      8 N          -3.9022    3.8463   -1.6024 N.pl3   1  LIG11      -0.1963
      9 N          -5.9007    2.7933   -1.2965 N.ar    1  LIG11      -0.2044
     10 N          -7.7956    3.1477   -2.6920 N.ar    1  LIG11      -0.1866
     11 N          -9.1369    1.1275   -1.2946 N.ar    1  LIG11      -0.2331
     12 N          -7.5425    1.3771    0.4658 N.ar    1  LIG11      -0.2331
     13 C          -6.1088    3.3426    4.7622 C.3     1  LIG11      -0.0127
     14 C          -5.5157    3.7931    3.4149 C.ar    1  LIG11      -0.0419
     15 C          -5.2930    3.9655    5.9147 C.3     1  LIG11      -0.0560
     16 C          -6.0518    1.8037    4.8759 C.3     1  LIG11      -0.0560
     17 C          -7.5840    3.7573    4.9636 C.3     1  LIG11      -0.0560
     18 C          -4.1978    3.4303    3.0663 C.ar    1  LIG11      -0.0562
     19 C          -6.2341    4.5839    2.5001 C.ar    1  LIG11      -0.0562
     20 C          -4.3716    4.5965    0.9640 C.ar    1  LIG11       0.1086
     21 C          -3.6250    3.8283    1.8552 C.ar    1  LIG11      -0.0348
     22 C          -5.6683    4.9914    1.2879 C.ar    1  LIG11      -0.0348
     23 C          -5.2430    3.6894   -2.0443 C.ar    1  LIG11       0.1883
     24 C          -5.7772    4.3967   -3.1029 C.ar    1  LIG11       0.2307
     25 C          -7.0819    4.0513   -3.3958 C.ar    1  LIG11       0.2642
     26 C          -7.1854    2.5610   -1.6396 C.ar    1  LIG11       0.2027
     27 C          -5.5372    6.4071   -4.3222 C.ar    1  LIG11       0.1702
     28 C          -7.9876    1.6357   -0.7875 C.ar    1  LIG11       0.1978
     29 C          -9.0856    4.7759   -4.4231 C.3     1  LIG11       0.1143
     30 C          -5.2019    6.7554   -5.6364 C.ar    1  LIG11       0.1621
     31 C          -6.3644    7.2464   -3.5657 C.ar    1  LIG11      -0.0157
     32 C          -5.7896    7.8793   -6.2243 C.ar    1  LIG11      -0.0163
     33 C          -9.8079    3.8681   -5.4129 C.3     1  LIG11       0.0783
     34 C          -6.9328    8.3775   -4.1519 C.ar    1  LIG11      -0.0581
     35 C          -6.6583    8.6842   -5.4838 C.ar    1  LIG11      -0.0581
     36 C          -9.8510    0.3202   -0.4889 C.ar    1  LIG11       0.0315
     37 C          -8.3057    0.5735    1.2284 C.ar    1  LIG11       0.0315
     38 C          -9.4816    0.0101    0.7973 C.ar    1  LIG11      -0.0254
     39 C          -3.3452    6.6326   -7.0511 C.3     1  LIG11       0.0790
     40 H          -9.9714    3.6853   -7.3467 H       1  LIG11       0.2095
     41 H          -3.6001    2.9847   -1.1512 H       1  LIG11       0.1754
     42 H          -4.2481    3.6355    5.9062 H       1  LIG11       0.0238
     43 H          -5.7104    3.6877    6.8896 H       1  LIG11       0.0238
     44 H          -5.2923    5.0601    5.8515 H       1  LIG11       0.0238
     45 H          -5.0247    1.4233    4.8694 H       1  LIG11       0.0238
     46 H          -6.5840    1.3277    4.0451 H       1  LIG11       0.0238
     47 H          -6.5132    1.4586    5.8086 H       1  LIG11       0.0238
     48 H          -7.7021    4.8472    4.9572 H       1  LIG11       0.0238
     49 H          -7.9672    3.4001    5.9270 H       1  LIG11       0.0238
     50 H          -8.2300    3.3385    4.1831 H       1  LIG11       0.0238
     51 H          -3.5911    2.8352    3.7462 H       1  LIG11       0.0621
     52 H          -7.2506    4.9084    2.7065 H       1  LIG11       0.0621
     53 H          -2.6004    3.5438    1.6271 H       1  LIG11       0.0637
     54 H          -6.2490    5.6106    0.6080 H       1  LIG11       0.0637
     55 H          -9.2667    5.8253   -4.6824 H       1  LIG11       0.0720
     56 H          -9.4734    4.6261   -3.4088 H       1  LIG11       0.0720
     57 H          -6.5730    7.0252   -2.5234 H       1  LIG11       0.0655
     58 H          -5.5981    8.1294   -7.2627 H       1  LIG11       0.0655
     59 H          -9.3984    2.8537   -5.3899 H       1  LIG11       0.0591
     60 H         -10.8781    3.8385   -5.1881 H       1  LIG11       0.0591
     61 H          -7.5939    9.0152   -3.5711 H       1  LIG11       0.0619
     62 H          -7.1184    9.5531   -5.9468 H       1  LIG11       0.0619
     63 H         -10.7617   -0.0811   -0.9240 H       1  LIG11       0.0831
     64 H          -7.9301    0.3912    2.2304 H       1  LIG11       0.0831
     65 H         -10.0763   -0.6353    1.4282 H       1  LIG11       0.0648
     66 H          -2.5189    5.9404   -7.2403 H       1  LIG11       0.0660
     67 H          -2.9442    7.4843   -6.4890 H       1  LIG11       0.0660
     68 H          -3.7381    6.9581   -8.0192 H       1  LIG11       0.0660
@<TRIPOS>BOND
     1     1     2    2
     2     1     3    2
     3     1     8    1
     4     1    20    1
     5     4    24    1
     6     4    27    1
     7     5    25    1
     8     5    29    1
     9     6    30    1
    10     6    39    1
    11     7    33    1
    12     8    23    1
    13     9    23   ar
    14     9    26   ar
    15    10    25   ar
    16    10    26   ar
    17    11    28   ar
    18    11    36   ar
    19    12    28   ar
    20    12    37   ar
    21    13    14    1
    22    13    15    1
    23    13    16    1
    24    13    17    1
    25    14    18   ar
    26    14    19   ar
    27    18    21   ar
    28    19    22   ar
    29    20    21   ar
    30    20    22   ar
    31    23    24   ar
    32    24    25   ar
    33    26    28    1
    34    27    30   ar
    35    27    31   ar
    36    29    33    1
    37    30    32   ar
    38    31    34   ar
    39    32    35   ar
    40    34    35   ar
    41    36    38   ar
    42    37    38   ar
    43     7    40    1
    44     8    41    1
    45    15    42    1
    46    15    43    1
    47    15    44    1
    48    16    45    1
    49    16    46    1
    50    16    47    1
    51    17    48    1
    52    17    49    1
    53    17    50    1
    54    18    51    1
    55    19    52    1
    56    21    53    1
    57    22    54    1
    58    29    55    1
    59    29    56    1
    60    31    57    1
    61    32    58    1
    62    33    59    1
    63    33    60    1
    64    34    61    1
    65    35    62    1
    66    36    63    1
    67    37    64    1
    68    38    65    1
    69    39    66    1
    70    39    67    1
    71    39    68    1
@<TRIPOS>MOLECULE
../1EDN/PCA1_17-21.pdb
 47 48 0 0 0
SMALL
GASTEIGER

@<TRIPOS>ATOM
      1  N         -4.6470   -0.3680   -1.6750 N.3    17  LEU17      -0.1231
      2  CA        -5.8920   -0.8550   -2.2480 C.3    17  LEU17       0.1693
      3  CB        -6.0770   -2.3450   -1.7480 C.3    17  LEU17       0.0284
      4  CG        -7.4170   -3.0590   -2.1890 C.3    17  LEU17       0.0019
      5  CD1       -7.4920   -3.1930   -3.7220 C.3    17  LEU17       0.0001
      6  CD2       -7.5340   -4.4610   -1.6100 C.3    17  LEU17       0.0001
      7  C         -7.0080    0.1010   -1.8270 C.2    17  LEU17       0.2592
      8  O         -7.6220    0.6590   -2.7680 O.2    17  LEU17      -0.2718
      9  N         -7.2890    0.1920   -0.5460 N.am   18  ASP18      -0.1960
     10  CA        -8.2730    1.1070    0.1120 C.3    18  ASP18       0.1840
     11  CB        -8.8290    0.4520    1.4200 C.3    18  ASP18       0.1450
     12  CG        -9.9140    1.2760    2.0640 C.2    18  ASP18       0.3671
     13  OD1      -10.8560    1.7240    1.3430 O.co2  18  ASP18      -0.2456
     14  OD2       -9.7710    1.5960    3.2830 O.co2  18  ASP18      -0.2456
     15  C         -7.6270    2.4530    0.4740 C.2    18  ASP18       0.2622
     16  O         -8.0770    3.4620   -0.0480 O.2    18  ASP18      -0.2715
     17  N         -6.6010    2.4770    1.3340 N.am   19  ILE19      -0.1963
     18  CA        -6.1660    3.6270    2.0790 C.3    19  ILE19       0.1727
     19  CB        -5.0730    3.3500    3.1520 C.3    19  ILE19       0.0290
     20  CG2       -4.5850    4.5470    3.9530 C.3    19  ILE19       0.0023
     21  CG1       -5.6210    2.1420    3.9730 C.3    19  ILE19       0.0022
     22  CD1       -6.7460    2.5740    4.8760 C.3    19  ILE19       0.0001
     23  C         -5.6740    4.7260    1.1170 C.2    19  ILE19       0.2616
     24  O         -5.9640    5.8590    1.4260 O.2    19  ILE19      -0.2715
     25  N         -4.8940    4.3400    0.1060 N.am   20  ILE20      -0.1963
     26  CA        -4.3700    5.1770   -0.9560 C.3    20  ILE20       0.1727
     27  CB        -2.8480    5.4620   -0.8180 C.3    20  ILE20       0.0290
     28  CG2       -2.5210    6.1670    0.5290 C.3    20  ILE20       0.0023
     29  CG1       -1.9270    4.2500   -0.9510 C.3    20  ILE20       0.0022
     30  CD1       -0.4520    4.4090   -1.0350 C.3    20  ILE20       0.0001
     31  C         -4.8260    4.7960   -2.3980 C.2    20  ILE20       0.2617
     32  O         -4.8210    3.6210   -2.7490 O.2    20  ILE20      -0.2715
     33  N         -5.1950    5.7710   -3.1960 N.am   21  TRP21      -0.1941
     34  CA        -5.6960    5.8160   -4.5740 C.3    21  TRP21       0.1982
     35  CB        -7.1930    6.0870   -4.6010 C.3    21  TRP21       0.0394
     36  CG        -8.1480    4.9210   -4.3560 C.3    21  TRP21       0.0475
     37  CD1       -8.4270    4.3170   -3.1580 C.3    21  TRP21       0.1166
     38  NE1       -9.4680    3.4340   -3.3480 N.pl3  21  TRP21      -0.2376
     39  CE2      -10.0400    3.5420   -4.5600 C.ar   21  TRP21       0.0614
     40  CZ2      -11.2420    2.9770   -5.0990 C.ar   21  TRP21       0.0158
     41  CH2      -11.3060    3.0240   -6.5170 C.ar   21  TRP21       0.0013
     42  CZ3      -10.3640    3.7270   -7.2650 C.ar   21  TRP21      -0.0002
     43  CE3       -9.2810    4.3830   -6.7050 C.ar   21  TRP21      -0.0030
     44  CD2       -9.0950    4.3440   -5.3390 C.ar   21  TRP21      -0.0059
     45  C         -4.8510    6.8160   -5.3910 C.2    21  TRP21       0.3842
     46  O         -5.0400    8.0490   -5.1500 O.co2  21  TRP21      -0.2437
     47  OXT       -3.9720    6.3760   -6.1010 O.co2  21  TRP21      -0.2437
@<TRIPOS>BOND
     1    42    43   ar
     2    42    41   ar
     3    43    44   ar
     4    41    40   ar
     5    47    45   ar
     6    45    46   ar
     7    45    34    1
     8    44    39   ar
     9    44    36    1
    10    40    39   ar
    11    35    34    1
    12    35    36    1
    13    34    33    1
    14    39    38    1
    15    36    37    1
    16     5     4    1
    17    38    37    1
    18    33    31   am
    19     8     7    2
    20    32    31    2
    21    31    26    1
    22     2     7    1
    23     2     3    1
    24     2     1    1
    25     4     3    1
    26     4     6    1
    27     7     9   am
    28    30    29    1
    29    26    27    1
    30    26    25    1
    31    29    27    1
    32    27    28    1
    33     9    10    1
    34    16    15    2
    35    25    23   am
    36    10    15    1
    37    10    11    1
    38    15    17   am
    39    23    24    2
    40    23    18    1
    41    17    18    1
    42    13    12   ar
    43    11    12    1
    44    12    14   ar
    45    18    19    1
    46    19    20    1
    47    19    21    1
    48    21    22    1
