@<TRIPOS>MOLECULE
9871593
 62 65 0 0 0
SMALL
GASTEIGER

@<TRIPOS>ATOM
      1 O         -10.0162    2.3177   -5.6706 O.3     1  LIG11      -0.4526
      2 O         -10.8728    4.1893   -6.9312 O.3     1  LIG11      -0.4526
      3 O          -6.4410   -0.5759   -1.6452 O.3     1  LIG11      -0.4913
      4 O          -9.6317    0.6243    1.7828 O.3     1  LIG11      -0.4913
      5 O          -8.0292   -1.3739    0.4011 O.3     1  LIG11      -0.4885
      6 O          -4.2704    4.3772   -2.0112 O.2     1  LIG11      -0.2870
      7 O          -5.1229    5.6123   -4.9674 O.co2   1  LIG11      -0.5446
      8 O          -5.4180    7.0634   -3.2110 O.co2   1  LIG11      -0.5446
      9 O          -4.4452    3.8439    4.1951 O.3     1  LIG11      -0.4951
     10 C          -7.8470    4.1008   -1.2314 C.3     1  LIG11       0.0021
     11 C          -6.6531    4.6331   -1.9849 C.2     1  LIG11       0.0135
     12 C          -7.8299    2.6635   -0.7558 C.ar    1  LIG11      -0.0358
     13 C          -6.7252    5.0946   -3.2595 C.2     1  LIG11       0.0117
     14 C          -7.8656    4.9228   -4.1921 C.ar    1  LIG11      -0.0121
     15 C          -5.2870    4.5633   -1.3414 C.2     1  LIG11       0.1901
     16 C          -8.6883    2.2995    0.2972 C.ar    1  LIG11      -0.0126
     17 C          -7.0823    1.6643   -1.3751 C.ar    1  LIG11      -0.0126
     18 C          -8.3896    3.6375   -4.4238 C.ar    1  LIG11      -0.0084
     19 C          -9.4046    3.4894   -5.3447 C.ar    1  LIG11       0.1668
     20 C          -8.3832    6.0096   -4.9348 C.ar    1  LIG11      -0.0503
     21 C          -9.8951    4.5559   -6.0582 C.ar    1  LIG11       0.1663
     22 C          -7.2124    0.3361   -0.9635 C.ar    1  LIG11       0.1654
     23 C          -8.7964    0.9736    0.7520 C.ar    1  LIG11       0.1654
     24 C          -5.1248    4.4505    0.1295 C.ar    1  LIG11       0.0222
     25 C          -8.0544   -0.0329    0.1072 C.ar    1  LIG11       0.2035
     26 C          -9.4018    5.8289   -5.8798 C.ar    1  LIG11      -0.0156
     27 C          -5.5948    5.9840   -3.8515 C.2     1  LIG11       0.0726
     28 C         -10.9161    2.7665   -6.7014 C.3     1  LIG11       0.2332
     29 C          -5.8191    5.2354    1.0561 C.ar    1  LIG11      -0.0475
     30 C          -4.1843    3.5145    0.5901 C.ar    1  LIG11      -0.0475
     31 C          -5.6221    5.0308    2.4303 C.ar    1  LIG11      -0.0193
     32 C          -3.9721    3.3280    1.9542 C.ar    1  LIG11      -0.0193
     33 C          -4.7146    4.0632    2.8712 C.ar    1  LIG11       0.1201
     34 C          -7.2490   -1.4472   -2.4353 C.3     1  LIG11       0.0790
     35 C         -10.1159    1.6610    2.6264 C.3     1  LIG11       0.0790
     36 C          -8.8919   -1.8893    1.3990 C.3     1  LIG11       0.0791
     37 C          -5.6119    3.4833    4.9294 C.3     1  LIG11       0.0788
     38 H          -8.0154    4.7534   -0.3666 H       1  LIG11       0.0363
     39 H          -8.7671    4.2193   -1.8157 H       1  LIG11       0.0363
     40 H          -9.2884    3.0879    0.7410 H       1  LIG11       0.0658
     41 H          -6.4098    1.8949   -2.2011 H       1  LIG11       0.0658
     42 H          -7.9886    2.7668   -3.9216 H       1  LIG11       0.0661
     43 H          -7.9529    7.0024   -4.8034 H       1  LIG11       0.0625
     44 H          -9.7667    6.6618   -6.4681 H       1  LIG11       0.0655
     45 H         -10.6640    2.2496   -7.6349 H       1  LIG11       0.1166
     46 H         -11.9382    2.4912   -6.4165 H       1  LIG11       0.1166
     47 H          -6.4890    6.0230    0.7174 H       1  LIG11       0.0626
     48 H          -3.6112    2.9299   -0.1259 H       1  LIG11       0.0626
     49 H          -6.1526    5.6533    3.1417 H       1  LIG11       0.0654
     50 H          -3.2349    2.6061    2.2927 H       1  LIG11       0.0654
     51 H          -6.7069   -1.6586   -3.3620 H       1  LIG11       0.0660
     52 H          -7.3954   -2.3946   -1.9077 H       1  LIG11       0.0660
     53 H          -8.2196   -1.0137   -2.7056 H       1  LIG11       0.0660
     54 H         -10.6080    1.1896    3.4828 H       1  LIG11       0.0660
     55 H          -9.2991    2.2799    3.0131 H       1  LIG11       0.0660
     56 H         -10.8660    2.2678    2.1094 H       1  LIG11       0.0660
     57 H          -8.7465   -2.9738    1.4304 H       1  LIG11       0.0660
     58 H          -8.6302   -1.5031    2.3886 H       1  LIG11       0.0660
     59 H          -9.9434   -1.7155    1.1492 H       1  LIG11       0.0660
     60 H          -5.2844    3.0098    5.8604 H       1  LIG11       0.0660
     61 H          -6.1935    4.3723    5.1897 H       1  LIG11       0.0660
     62 H          -6.2310    2.7597    4.3864 H       1  LIG11       0.0660
@<TRIPOS>BOND
     1     1    19    1
     2     1    28    1
     3     2    28    1
     4     2    21    1
     5     3    22    1
     6     3    34    1
     7     4    23    1
     8     4    35    1
     9     5    25    1
    10     5    36    1
    11     6    15    2
    12     7    27   ar
    13     8    27   ar
    14     9    33    1
    15     9    37    1
    16    10    11    1
    17    10    12    1
    18    11    13    2
    19    11    15    1
    20    12    16   ar
    21    12    17   ar
    22    13    14    1
    23    13    27    1
    24    14    20   ar
    25    14    18   ar
    26    15    24    1
    27    16    23   ar
    28    17    22   ar
    29    18    19   ar
    30    19    21   ar
    31    20    26   ar
    32    21    26   ar
    33    22    25   ar
    34    23    25   ar
    35    24    29   ar
    36    24    30   ar
    37    29    31   ar
    38    30    32   ar
    39    31    33   ar
    40    32    33   ar
    41    10    38    1
    42    10    39    1
    43    16    40    1
    44    17    41    1
    45    18    42    1
    46    20    43    1
    47    26    44    1
    48    28    45    1
    49    28    46    1
    50    29    47    1
    51    30    48    1
    52    31    49    1
    53    32    50    1
    54    34    51    1
    55    34    52    1
    56    34    53    1
    57    35    54    1
    58    35    55    1
    59    35    56    1
    60    36    57    1
    61    36    58    1
    62    36    59    1
    63    37    60    1
    64    37    61    1
    65    37    62    1
@<TRIPOS>MOLECULE
../1EDN/PCA1_17-21.pdb
 47 48 0 0 0
SMALL
GASTEIGER

@<TRIPOS>ATOM
      1  N         -4.6470   -0.3680   -1.6750 N.3    17  LEU17      -0.1231
      2  CA        -5.8920   -0.8550   -2.2480 C.3    17  LEU17       0.1693
      3  CB        -6.0770   -2.3450   -1.7480 C.3    17  LEU17       0.0284
      4  CG        -7.4170   -3.0590   -2.1890 C.3    17  LEU17       0.0019
      5  CD1       -7.4920   -3.1930   -3.7220 C.3    17  LEU17       0.0001
      6  CD2       -7.5340   -4.4610   -1.6100 C.3    17  LEU17       0.0001
      7  C         -7.0080    0.1010   -1.8270 C.2    17  LEU17       0.2592
      8  O         -7.6220    0.6590   -2.7680 O.2    17  LEU17      -0.2718
      9  N         -7.2890    0.1920   -0.5460 N.am   18  ASP18      -0.1960
     10  CA        -8.2730    1.1070    0.1120 C.3    18  ASP18       0.1840
     11  CB        -8.8290    0.4520    1.4200 C.3    18  ASP18       0.1450
     12  CG        -9.9140    1.2760    2.0640 C.2    18  ASP18       0.3671
     13  OD1      -10.8560    1.7240    1.3430 O.co2  18  ASP18      -0.2456
     14  OD2       -9.7710    1.5960    3.2830 O.co2  18  ASP18      -0.2456
     15  C         -7.6270    2.4530    0.4740 C.2    18  ASP18       0.2622
     16  O         -8.0770    3.4620   -0.0480 O.2    18  ASP18      -0.2715
     17  N         -6.6010    2.4770    1.3340 N.am   19  ILE19      -0.1963
     18  CA        -6.1660    3.6270    2.0790 C.3    19  ILE19       0.1727
     19  CB        -5.0730    3.3500    3.1520 C.3    19  ILE19       0.0290
     20  CG2       -4.5850    4.5470    3.9530 C.3    19  ILE19       0.0023
     21  CG1       -5.6210    2.1420    3.9730 C.3    19  ILE19       0.0022
     22  CD1       -6.7460    2.5740    4.8760 C.3    19  ILE19       0.0001
     23  C         -5.6740    4.7260    1.1170 C.2    19  ILE19       0.2616
     24  O         -5.9640    5.8590    1.4260 O.2    19  ILE19      -0.2715
     25  N         -4.8940    4.3400    0.1060 N.am   20  ILE20      -0.1963
     26  CA        -4.3700    5.1770   -0.9560 C.3    20  ILE20       0.1727
     27  CB        -2.8480    5.4620   -0.8180 C.3    20  ILE20       0.0290
     28  CG2       -2.5210    6.1670    0.5290 C.3    20  ILE20       0.0023
     29  CG1       -1.9270    4.2500   -0.9510 C.3    20  ILE20       0.0022
     30  CD1       -0.4520    4.4090   -1.0350 C.3    20  ILE20       0.0001
     31  C         -4.8260    4.7960   -2.3980 C.2    20  ILE20       0.2617
     32  O         -4.8210    3.6210   -2.7490 O.2    20  ILE20      -0.2715
     33  N         -5.1950    5.7710   -3.1960 N.am   21  TRP21      -0.1941
     34  CA        -5.6960    5.8160   -4.5740 C.3    21  TRP21       0.1982
     35  CB        -7.1930    6.0870   -4.6010 C.3    21  TRP21       0.0394
     36  CG        -8.1480    4.9210   -4.3560 C.3    21  TRP21       0.0475
     37  CD1       -8.4270    4.3170   -3.1580 C.3    21  TRP21       0.1166
     38  NE1       -9.4680    3.4340   -3.3480 N.pl3  21  TRP21      -0.2376
     39  CE2      -10.0400    3.5420   -4.5600 C.ar   21  TRP21       0.0614
     40  CZ2      -11.2420    2.9770   -5.0990 C.ar   21  TRP21       0.0158
     41  CH2      -11.3060    3.0240   -6.5170 C.ar   21  TRP21       0.0013
     42  CZ3      -10.3640    3.7270   -7.2650 C.ar   21  TRP21      -0.0002
     43  CE3       -9.2810    4.3830   -6.7050 C.ar   21  TRP21      -0.0030
     44  CD2       -9.0950    4.3440   -5.3390 C.ar   21  TRP21      -0.0059
     45  C         -4.8510    6.8160   -5.3910 C.2    21  TRP21       0.3842
     46  O         -5.0400    8.0490   -5.1500 O.co2  21  TRP21      -0.2437
     47  OXT       -3.9720    6.3760   -6.1010 O.co2  21  TRP21      -0.2437
@<TRIPOS>BOND
     1    42    43   ar
     2    42    41   ar
     3    43    44   ar
     4    41    40   ar
     5    47    45   ar
     6    45    46   ar
     7    45    34    1
     8    44    39   ar
     9    44    36    1
    10    40    39   ar
    11    35    34    1
    12    35    36    1
    13    34    33    1
    14    39    38    1
    15    36    37    1
    16     5     4    1
    17    38    37    1
    18    33    31   am
    19     8     7    2
    20    32    31    2
    21    31    26    1
    22     2     7    1
    23     2     3    1
    24     2     1    1
    25     4     3    1
    26     4     6    1
    27     7     9   am
    28    30    29    1
    29    26    27    1
    30    26    25    1
    31    29    27    1
    32    27    28    1
    33     9    10    1
    34    16    15    2
    35    25    23   am
    36    10    15    1
    37    10    11    1
    38    15    17   am
    39    23    24    2
    40    23    18    1
    41    17    18    1
    42    13    12   ar
    43    11    12    1
    44    12    14   ar
    45    18    19    1
    46    19    20    1
    47    19    21    1
    48    21    22    1
