@<TRIPOS>MOLECULE
02228316B
 82 86 0 0 0
SMALL
GASTEIGER

@<TRIPOS>ATOM
      1 C          -7.9273    5.4827    0.9926 C.3     1  LIG11       0.2491
      2 C          -6.9969    4.7069    0.0926 C.2     1  LIG11       0.3556
      3 N          -7.4600    6.8798    0.8374 N.2     1  LIG11      -0.0687
      4 C          -7.8930    5.0317    2.4509 C.3     1  LIG11       0.0059
      5 C          -9.3838    5.3661    0.5191 C.3     1  LIG11       0.0059
      6 N          -6.4096    5.6417   -0.7179 N.am    1  LIG11      -0.1529
      7 O          -6.8039    3.5019    0.1174 O.2     1  LIG11      -0.2422
      8 C          -6.6372    6.8483   -0.1730 C.2     1  LIG11       0.2916
      9 C          -9.2287    4.3263    2.6630 C.3     1  LIG11      -0.0481
     10 C         -10.1869    5.1164    1.7887 C.3     1  LIG11      -0.0481
     11 C          -5.4667    5.2408   -1.7396 C.3     1  LIG11       0.1137
     12 C          -6.0567    8.1606   -0.6714 C.3     1  LIG11       0.0509
     13 C          -6.0590    4.8271   -3.0682 C.ar    1  LIG11      -0.0073
     14 C          -4.5450    8.3333   -0.8249 C.3     1  LIG11      -0.0424
     15 C          -5.5176    5.3577   -4.2469 C.ar    1  LIG11      -0.0491
     16 C          -6.9787    3.7863   -3.1814 C.ar    1  LIG11      -0.0544
     17 C          -3.6551    7.6605    0.2192 C.3     1  LIG11      -0.0554
     18 C          -5.7204    4.7483   -5.5018 C.ar    1  LIG11      -0.0138
     19 C          -7.2481    3.2142   -4.4270 C.ar    1  LIG11      -0.0533
     20 C          -3.7808    8.2660    1.6057 C.3     1  LIG11      -0.0653
     21 C          -6.5467    3.5996   -5.5788 C.ar    1  LIG11      -0.0106
     22 C          -5.0195    5.3031   -6.7300 C.3     1  LIG11       0.0732
     23 C          -6.6565    2.7637   -6.7930 C.ar    1  LIG11       0.0091
     24 O          -4.1892    6.4371   -6.4530 O.3     1  LIG11      -0.3754
     25 C          -6.1625    1.4415   -6.9102 C.ar    1  LIG11       0.1162
     26 C          -7.2936    3.3142   -7.9258 C.ar    1  LIG11      -0.0521
     27 C          -2.7911    6.1776   -6.5538 C.3     1  LIG11       0.0453
     28 S          -5.3342    0.5494   -5.5930 S.O2    1  LIG11       0.0741
     29 C          -6.2567    0.7494   -8.1361 C.ar    1  LIG11      -0.0345
     30 C          -7.3857    2.6187   -9.1348 C.ar    1  LIG11      -0.0611
     31 C          -2.2567    5.4579   -5.3288 C.3     1  LIG11      -0.0416
     32 N          -6.6050   -0.3850   -4.9530 N.pl3   1  LIG11      -0.1965
     33 O          -4.7893    1.4548   -4.6111 O.2     1  LIG11      -0.1499
     34 O          -4.4624   -0.4284   -6.2208 O.2     1  LIG11      -0.1499
     35 C          -6.8597    1.3394   -9.2430 C.ar    1  LIG11      -0.0599
     36 C          -6.8134   -0.3440   -3.5728 C.ar    1  LIG11       0.1837
     37 C          -6.0868   -1.0413   -2.5729 C.ar    1  LIG11       0.0342
     38 N          -7.8748    0.2802   -3.0610 N.ar    1  LIG11      -0.0614
     39 C          -6.7300   -0.6846   -1.4045 C.ar    1  LIG11       0.1390
     40 C          -4.9058   -1.9208   -2.7111 C.3     1  LIG11      -0.0330
     41 O          -7.7953    0.1050   -1.6959 O.2     1  LIG11      -0.3578
     42 C          -6.5104   -0.9662    0.0266 C.3     1  LIG11      -0.0034
     43 H          -7.0577    4.3625    2.6824 H       1  LIG11       0.0316
     44 H          -7.8237    5.8927    3.1264 H       1  LIG11       0.0316
     45 H          -9.7441    6.2596   -0.0023 H       1  LIG11       0.0316
     46 H          -9.5099    4.5156   -0.1628 H       1  LIG11       0.0316
     47 H          -9.1689    3.2880    2.3149 H       1  LIG11       0.0267
     48 H          -9.5328    4.3184    3.7133 H       1  LIG11       0.0267
     49 H         -10.4394    6.0697    2.2680 H       1  LIG11       0.0267
     50 H         -11.1169    4.5761    1.5902 H       1  LIG11       0.0267
     51 H          -4.7534    6.0413   -1.9096 H       1  LIG11       0.0783
     52 H          -4.8797    4.3934   -1.3610 H       1  LIG11       0.0783
     53 H          -6.5377    8.3817   -1.6319 H       1  LIG11       0.0387
     54 H          -6.4046    8.9409    0.0205 H       1  LIG11       0.0387
     55 H          -4.2422    7.9929   -1.8210 H       1  LIG11       0.0271
     56 H          -4.3272    9.4100   -0.8325 H       1  LIG11       0.0271
     57 H          -4.8515    6.2157   -4.1785 H       1  LIG11       0.0625
     58 H          -7.4338    3.3320   -2.3049 H       1  LIG11       0.0622
     59 H          -3.8541    6.5856    0.2714 H       1  LIG11       0.0263
     60 H          -2.6125    7.7627   -0.1072 H       1  LIG11       0.0263
     61 H          -7.9491    2.3839   -4.4724 H       1  LIG11       0.0624
     62 H          -4.7871    8.1343    2.0111 H       1  LIG11       0.0230
     63 H          -3.0745    7.7806    2.2875 H       1  LIG11       0.0230
     64 H          -3.5477    9.3354    1.5877 H       1  LIG11       0.0230
     65 H          -4.4528    4.5149   -7.2393 H       1  LIG11       0.0610
     66 H          -5.7886    5.6726   -7.4171 H       1  LIG11       0.0610
     67 H          -7.7252    4.3136   -7.8716 H       1  LIG11       0.0624
     68 H          -2.5658    5.6270   -7.4735 H       1  LIG11       0.0557
     69 H          -2.2954    7.1508   -6.6324 H       1  LIG11       0.0557
     70 H          -5.8551   -0.2571   -8.2409 H       1  LIG11       0.0637
     71 H          -7.8668    3.0837   -9.9925 H       1  LIG11       0.0618
     72 H          -2.7178    4.4728   -5.2125 H       1  LIG11       0.0252
     73 H          -1.1738    5.3272   -5.3997 H       1  LIG11       0.0252
     74 H          -2.4770    6.0295   -4.4208 H       1  LIG11       0.0252
     75 H          -6.4030   -1.3324   -5.2704 H       1  LIG11       0.1753
     76 H          -6.9212    0.7989  -10.1844 H       1  LIG11       0.0618
     77 H          -4.6358   -2.0794   -3.7587 H       1  LIG11       0.0280
     78 H          -4.0416   -1.4870   -2.1988 H       1  LIG11       0.0280
     79 H          -5.1102   -2.9024   -2.2703 H       1  LIG11       0.0280
     80 H          -5.9126   -1.8725    0.1634 H       1  LIG11       0.0309
     81 H          -5.9825   -0.1326    0.4999 H       1  LIG11       0.0309
     82 H          -7.4625   -1.1101    0.5471 H       1  LIG11       0.0309
@<TRIPOS>BOND
     1     1     5    1
     2     1     4    1
     3     1     2    1
     4     1     3    1
     5     2     6   am
     6     2     7    2
     7     3     8    2
     8     4     9    1
     9     5    10    1
    10     6     8    1
    11     6    11    1
    12     8    12    1
    13     9    10    1
    14    11    13    1
    15    12    14    1
    16    13    15   ar
    17    13    16   ar
    18    14    17    1
    19    15    18   ar
    20    16    19   ar
    21    17    20    1
    22    18    21   ar
    23    18    22    1
    24    19    21   ar
    25    21    23    1
    26    22    24    1
    27    23    26   ar
    28    23    25   ar
    29    24    27    1
    30    25    29   ar
    31    25    28    1
    32    26    30   ar
    33    27    31    1
    34    28    34    2
    35    28    33    2
    36    28    32    1
    37    29    35   ar
    38    30    35   ar
    39    32    36    1
    40    36    37   ar
    41    36    38   ar
    42    37    39   ar
    43    37    40    1
    44    38    41   ar
    45    39    41   ar
    46    39    42    1
    47     4    43    1
    48     4    44    1
    49     5    45    1
    50     5    46    1
    51     9    47    1
    52     9    48    1
    53    10    49    1
    54    10    50    1
    55    11    51    1
    56    11    52    1
    57    12    53    1
    58    12    54    1
    59    14    55    1
    60    14    56    1
    61    15    57    1
    62    16    58    1
    63    17    59    1
    64    17    60    1
    65    19    61    1
    66    20    62    1
    67    20    63    1
    68    20    64    1
    69    22    65    1
    70    22    66    1
    71    26    67    1
    72    27    68    1
    73    27    69    1
    74    29    70    1
    75    30    71    1
    76    31    72    1
    77    31    73    1
    78    31    74    1
    79    32    75    1
    80    35    76    1
    81    40    77    1
    82    40    78    1
    83    40    79    1
    84    42    80    1
    85    42    81    1
    86    42    82    1
@<TRIPOS>MOLECULE
../1EDN/PCA2_17-21.pdb
 47 48 0 0 0
SMALL
GASTEIGER

@<TRIPOS>ATOM
      1  N         -4.4680    0.3970   -1.5420 N.3    17  LEU17      -0.1231
      2  CA        -5.5730   -0.5090   -1.8150 C.3    17  LEU17       0.1693
      3  CB        -5.9860   -1.2020   -0.4580 C.3    17  LEU17       0.0284
      4  CG        -7.1280   -2.2100   -0.5390 C.3    17  LEU17       0.0019
      5  CD1       -6.7120   -3.3620   -1.4700 C.3    17  LEU17       0.0001
      6  CD2       -7.4980   -2.5610    0.9130 C.3    17  LEU17       0.0001
      7  C         -6.7000    0.2280   -2.5610 C.2    17  LEU17       0.2592
      8  O         -7.1860   -0.2780   -3.5510 O.2    17  LEU17      -0.2718
      9  N         -7.2650    1.2690   -1.9650 N.am   18  ASP18      -0.1960
     10  CA        -8.5260    1.8930   -2.2590 C.3    18  ASP18       0.1840
     11  CB        -9.6810    1.0560   -1.6740 C.3    18  ASP18       0.1450
     12  CG       -11.0010    1.6360   -2.1090 C.2    18  ASP18       0.3671
     13  OD1      -11.5960    2.3310   -1.2790 O.co2  18  ASP18      -0.2456
     14  OD2      -11.5460    1.2700   -3.1630 O.co2  18  ASP18      -0.2456
     15  C         -8.5570    3.3770   -1.7380 C.2    18  ASP18       0.2622
     16  O         -8.6960    4.2620   -2.5680 O.2    18  ASP18      -0.2715
     17  N         -8.4180    3.5730   -0.4160 N.am   19  ILE19      -0.1963
     18  CA        -8.3980    4.9040    0.1930 C.3    19  ILE19       0.1727
     19  CB        -8.4260    4.8620    1.7600 C.3    19  ILE19       0.0290
     20  CG2       -7.7310    6.0060    2.5190 C.3    19  ILE19       0.0023
     21  CG1       -9.9240    4.5740    2.2500 C.3    19  ILE19       0.0022
     22  CD1      -10.9740    5.6950    2.0110 C.3    19  ILE19       0.0001
     23  C         -7.1570    5.7010   -0.3260 C.2    19  ILE19       0.2616
     24  O         -7.3050    6.7970   -0.9200 O.2    19  ILE19      -0.2715
     25  N         -5.9900    5.0720   -0.2260 N.am   20  ILE20      -0.1963
     26  CA        -4.7520    5.3490   -0.9430 C.3    20  ILE20       0.1727
     27  CB        -3.5230    4.9310   -0.1080 C.3    20  ILE20       0.0290
     28  CG2       -2.1210    5.5060   -0.7390 C.3    20  ILE20       0.0023
     29  CG1       -3.5940    5.4760    1.3470 C.3    20  ILE20       0.0022
     30  CD1       -2.3570    5.1940    2.2260 C.3    20  ILE20       0.0001
     31  C         -4.7590    4.7050   -2.3650 C.2    20  ILE20       0.2617
     32  O         -4.2060    3.6200   -2.5900 O.2    20  ILE20      -0.2715
     33  N         -5.4060    5.3330   -3.3880 N.am   21  TRP21      -0.1938
     34  CA        -5.3950    4.7680   -4.7850 C.3    21  TRP21       0.2021
     35  CB        -6.6210    3.8650   -5.0310 C.3    21  TRP21       0.0612
     36  CG        -6.7890    3.3770   -6.4480 C.ar   21  TRP21       0.0007
     37  CD1       -7.1340    4.1960   -7.4760 C.ar   21  TRP21       0.0946
     38  NE1       -7.1740    3.4060   -8.6160 N.ar   21  TRP21      -0.2442
     39  CE2       -6.9360    2.0750   -8.3350 C.ar   21  TRP21       0.0810
     40  CZ2       -6.8300    1.0510   -9.2060 C.ar   21  TRP21       0.0191
     41  CH2       -6.3330   -0.2010   -8.7710 C.ar   21  TRP21       0.0015
     42  CZ3       -5.9560   -0.2520   -7.3640 C.ar   21  TRP21       0.0001
     43  CE3       -6.0150    0.8940   -6.5860 C.ar   21  TRP21       0.0012
     44  CD2       -6.6320    2.0560   -6.9830 C.ar   21  TRP21       0.0152
     45  C         -5.1960    5.8550   -5.8260 C.2    21  TRP21       0.3845
     46  O         -4.1840    5.6720   -6.5070 O.co2  21  TRP21      -0.2437
     47  OXT       -5.9640    6.8330   -6.0170 O.co2  21  TRP21      -0.2437
@<TRIPOS>BOND
     1    40    41   ar
     2    40    39   ar
     3    41    42   ar
     4    38    39   ar
     5    38    37   ar
     6    39    44   ar
     7    37    36   ar
     8    42    43   ar
     9    44    43   ar
    10    44    36   ar
    11    46    45   ar
    12    36    35    1
    13    47    45   ar
    14    45    34    1
    15    35    34    1
    16    34    33    1
    17     8     7    2
    18    33    31   am
    19    14    12   ar
    20    32    31    2
    21    16    15    2
    22     7     9   am
    23     7     2    1
    24    31    26    1
    25    10     9    1
    26    10    15    1
    27    10    11    1
    28    12    11    1
    29    12    13   ar
    30     2     1    1
    31     2     3    1
    32    15    17   am
    33     5     4    1
    34    26    25    1
    35    26    27    1
    36    24    23    2
    37    28    27    1
    38     4     3    1
    39     4     6    1
    40    17    18    1
    41    23    25   am
    42    23    18    1
    43    27    29    1
    44    18    19    1
    45    29    30    1
    46    19    21    1
    47    19    20    1
    48    22    21    1
