@<TRIPOS>MOLECULE
108002
 64 68 0 0 0
SMALL
GASTEIGER

@<TRIPOS>ATOM
      1 O          -6.1716    7.0875   -5.5832 O.co2   1  LIG11      -0.5495
      2 O          -4.3547    5.9961   -6.3955 O.co2   1  LIG11      -0.5495
      3 O          -9.7690    3.6476   -0.4563 O.3     1  LIG11      -0.4920
      4 O          -5.0777    2.6880   -2.3378 O.3     1  LIG11      -0.4858
      5 O          -6.3014   -0.4869   -6.6817 O.3     1  LIG11      -0.4526
      6 O          -6.1638    0.0615   -9.0254 O.3     1  LIG11      -0.4526
      7 O          -1.2603    4.8927   -0.1751 O.3     1  LIG11      -0.4950
      8 O          -6.5250    0.4301   -0.6019 O.co2   1  LIG11      -0.5463
      9 O          -5.9506   -0.3830   -2.6557 O.co2   1  LIG11      -0.5463
     10 C          -5.7318    4.8644   -4.8356 C.3     1  LIG11       0.0203
     11 C          -5.9814    5.2797   -3.3692 C.3     1  LIG11       0.0218
     12 C          -7.0586    4.2898   -5.3839 C.3     1  LIG11       0.0184
     13 C          -7.2450    4.5427   -3.0064 C.ar    1  LIG11      -0.0320
     14 C          -7.8406    3.9697   -4.1310 C.ar    1  LIG11      -0.0353
     15 C          -6.8279    3.1423   -6.3590 C.ar    1  LIG11      -0.0356
     16 C          -4.7681    5.0521   -2.4706 C.ar    1  LIG11       0.0026
     17 C          -5.3881    6.0966   -5.6742 C.2     1  LIG11       0.0466
     18 C          -7.8467    4.4720   -1.7548 C.ar    1  LIG11      -0.0159
     19 C          -9.0436    3.2875   -4.0106 C.ar    1  LIG11      -0.0542
     20 C          -9.0575    3.7913   -1.6207 C.ar    1  LIG11       0.1208
     21 C          -4.3134    3.7918   -2.0298 C.ar    1  LIG11       0.1283
     22 C          -6.6628    1.8095   -5.9406 C.ar    1  LIG11      -0.0124
     23 C          -6.7233    3.4486   -7.7399 C.ar    1  LIG11      -0.0543
     24 C          -9.6375    3.1867   -2.7474 C.ar    1  LIG11      -0.0196
     25 C          -4.0286    6.1975   -2.1127 C.ar    1  LIG11      -0.0510
     26 C          -6.4540    0.8459   -6.9065 C.ar    1  LIG11       0.1665
     27 C          -6.5009    2.4515   -8.6944 C.ar    1  LIG11      -0.0159
     28 C          -3.1149    3.7139   -1.2944 C.ar    1  LIG11       0.0221
     29 C          -2.8754    6.1040   -1.3326 C.ar    1  LIG11      -0.0194
     30 C          -6.3780    1.1573   -8.2451 C.ar    1  LIG11       0.1662
     31 C          -2.4085    4.8619   -0.9245 C.ar    1  LIG11       0.1236
     32 C          -9.3731    4.4506    0.6545 C.3     1  LIG11       0.0893
     33 C          -6.0868   -0.9666   -8.0154 C.3     1  LIG11       0.2332
     34 C          -4.6952    1.4295   -1.7465 C.3     1  LIG11       0.1287
     35 C          -8.3131    3.7576    1.5086 C.3     1  LIG11      -0.0215
     36 C          -5.8718    0.4339   -1.6900 C.2     1  LIG11       0.0789
     37 C          -0.7794    3.6398    0.2940 C.3     1  LIG11       0.0788
     38 C          -7.8428    4.6575    2.6392 C.3     1  LIG11      -0.0622
     39 H          -4.9185    4.1293   -4.9079 H       1  LIG11       0.0379
     40 H          -6.2542    6.3415   -3.2976 H       1  LIG11       0.0405
     41 H          -7.6498    5.0555   -5.9065 H       1  LIG11       0.0404
     42 H          -7.3389    4.9336   -0.9188 H       1  LIG11       0.0657
     43 H          -9.5088    2.8295   -4.8763 H       1  LIG11       0.0622
     44 H          -6.6860    1.5310   -4.8893 H       1  LIG11       0.0658
     45 H          -6.7907    4.4878   -8.0607 H       1  LIG11       0.0622
     46 H         -10.5636    2.6312   -2.6361 H       1  LIG11       0.0654
     47 H          -4.3499    7.1778   -2.4611 H       1  LIG11       0.0623
     48 H          -6.4123    2.6962   -9.7448 H       1  LIG11       0.0655
     49 H          -2.7287    2.7441   -1.0165 H       1  LIG11       0.0691
     50 H          -2.3330    7.0065   -1.0675 H       1  LIG11       0.0654
     51 H         -10.2733    4.5879    1.2661 H       1  LIG11       0.0696
     52 H          -9.0770    5.4607    0.3455 H       1  LIG11       0.0696
     53 H          -6.8427   -1.7282   -8.2399 H       1  LIG11       0.1166
     54 H          -5.0970   -1.4347   -8.0686 H       1  LIG11       0.1166
     55 H          -4.3745    1.5553   -0.7058 H       1  LIG11       0.0760
     56 H          -3.8780    0.9983   -2.3339 H       1  LIG11       0.0760
     57 H          -7.4532    3.4578    0.8999 H       1  LIG11       0.0295
     58 H          -8.7256    2.8276    1.9171 H       1  LIG11       0.0295
     59 H           0.1037    3.8311    0.9111 H       1  LIG11       0.0660
     60 H          -0.4694    3.0003   -0.5390 H       1  LIG11       0.0660
     61 H          -1.5201    3.1382    0.9268 H       1  LIG11       0.0660
     62 H          -7.4015    5.5793    2.2471 H       1  LIG11       0.0231
     63 H          -7.0848    4.1488    3.2418 H       1  LIG11       0.0231
     64 H          -8.6754    4.9295    3.2971 H       1  LIG11       0.0231
@<TRIPOS>BOND
     1     1    17   ar
     2     2    17   ar
     3     3    20    1
     4     3    32    1
     5     4    21    1
     6     4    34    1
     7     5    26    1
     8     5    33    1
     9     6    30    1
    10     6    33    1
    11     7    31    1
    12     7    37    1
    13     8    36   ar
    14     9    36   ar
    15    10    11    1
    16    10    12    1
    17    10    17    1
    18    11    13    1
    19    11    16    1
    20    12    14    1
    21    12    15    1
    22    13    14   ar
    23    13    18   ar
    24    14    19   ar
    25    15    22   ar
    26    15    23   ar
    27    16    21   ar
    28    16    25   ar
    29    18    20   ar
    30    19    24   ar
    31    20    24   ar
    32    21    28   ar
    33    22    26   ar
    34    23    27   ar
    35    25    29   ar
    36    26    30   ar
    37    27    30   ar
    38    28    31   ar
    39    29    31   ar
    40    32    35    1
    41    34    36    1
    42    35    38    1
    43    10    39    1
    44    11    40    1
    45    12    41    1
    46    18    42    1
    47    19    43    1
    48    22    44    1
    49    23    45    1
    50    24    46    1
    51    25    47    1
    52    27    48    1
    53    28    49    1
    54    29    50    1
    55    32    51    1
    56    32    52    1
    57    33    53    1
    58    33    54    1
    59    34    55    1
    60    34    56    1
    61    35    57    1
    62    35    58    1
    63    37    59    1
    64    37    60    1
    65    37    61    1
    66    38    62    1
    67    38    63    1
    68    38    64    1
@<TRIPOS>MOLECULE
../1EDN/PCA2_17-21.pdb
 47 48 0 0 0
SMALL
GASTEIGER

@<TRIPOS>ATOM
      1  N         -4.4680    0.3970   -1.5420 N.3    17  LEU17      -0.1231
      2  CA        -5.5730   -0.5090   -1.8150 C.3    17  LEU17       0.1693
      3  CB        -5.9860   -1.2020   -0.4580 C.3    17  LEU17       0.0284
      4  CG        -7.1280   -2.2100   -0.5390 C.3    17  LEU17       0.0019
      5  CD1       -6.7120   -3.3620   -1.4700 C.3    17  LEU17       0.0001
      6  CD2       -7.4980   -2.5610    0.9130 C.3    17  LEU17       0.0001
      7  C         -6.7000    0.2280   -2.5610 C.2    17  LEU17       0.2592
      8  O         -7.1860   -0.2780   -3.5510 O.2    17  LEU17      -0.2718
      9  N         -7.2650    1.2690   -1.9650 N.am   18  ASP18      -0.1960
     10  CA        -8.5260    1.8930   -2.2590 C.3    18  ASP18       0.1840
     11  CB        -9.6810    1.0560   -1.6740 C.3    18  ASP18       0.1450
     12  CG       -11.0010    1.6360   -2.1090 C.2    18  ASP18       0.3671
     13  OD1      -11.5960    2.3310   -1.2790 O.co2  18  ASP18      -0.2456
     14  OD2      -11.5460    1.2700   -3.1630 O.co2  18  ASP18      -0.2456
     15  C         -8.5570    3.3770   -1.7380 C.2    18  ASP18       0.2622
     16  O         -8.6960    4.2620   -2.5680 O.2    18  ASP18      -0.2715
     17  N         -8.4180    3.5730   -0.4160 N.am   19  ILE19      -0.1963
     18  CA        -8.3980    4.9040    0.1930 C.3    19  ILE19       0.1727
     19  CB        -8.4260    4.8620    1.7600 C.3    19  ILE19       0.0290
     20  CG2       -7.7310    6.0060    2.5190 C.3    19  ILE19       0.0023
     21  CG1       -9.9240    4.5740    2.2500 C.3    19  ILE19       0.0022
     22  CD1      -10.9740    5.6950    2.0110 C.3    19  ILE19       0.0001
     23  C         -7.1570    5.7010   -0.3260 C.2    19  ILE19       0.2616
     24  O         -7.3050    6.7970   -0.9200 O.2    19  ILE19      -0.2715
     25  N         -5.9900    5.0720   -0.2260 N.am   20  ILE20      -0.1963
     26  CA        -4.7520    5.3490   -0.9430 C.3    20  ILE20       0.1727
     27  CB        -3.5230    4.9310   -0.1080 C.3    20  ILE20       0.0290
     28  CG2       -2.1210    5.5060   -0.7390 C.3    20  ILE20       0.0023
     29  CG1       -3.5940    5.4760    1.3470 C.3    20  ILE20       0.0022
     30  CD1       -2.3570    5.1940    2.2260 C.3    20  ILE20       0.0001
     31  C         -4.7590    4.7050   -2.3650 C.2    20  ILE20       0.2617
     32  O         -4.2060    3.6200   -2.5900 O.2    20  ILE20      -0.2715
     33  N         -5.4060    5.3330   -3.3880 N.am   21  TRP21      -0.1938
     34  CA        -5.3950    4.7680   -4.7850 C.3    21  TRP21       0.2021
     35  CB        -6.6210    3.8650   -5.0310 C.3    21  TRP21       0.0612
     36  CG        -6.7890    3.3770   -6.4480 C.ar   21  TRP21       0.0007
     37  CD1       -7.1340    4.1960   -7.4760 C.ar   21  TRP21       0.0946
     38  NE1       -7.1740    3.4060   -8.6160 N.ar   21  TRP21      -0.2442
     39  CE2       -6.9360    2.0750   -8.3350 C.ar   21  TRP21       0.0810
     40  CZ2       -6.8300    1.0510   -9.2060 C.ar   21  TRP21       0.0191
     41  CH2       -6.3330   -0.2010   -8.7710 C.ar   21  TRP21       0.0015
     42  CZ3       -5.9560   -0.2520   -7.3640 C.ar   21  TRP21       0.0001
     43  CE3       -6.0150    0.8940   -6.5860 C.ar   21  TRP21       0.0012
     44  CD2       -6.6320    2.0560   -6.9830 C.ar   21  TRP21       0.0152
     45  C         -5.1960    5.8550   -5.8260 C.2    21  TRP21       0.3845
     46  O         -4.1840    5.6720   -6.5070 O.co2  21  TRP21      -0.2437
     47  OXT       -5.9640    6.8330   -6.0170 O.co2  21  TRP21      -0.2437
@<TRIPOS>BOND
     1    40    41   ar
     2    40    39   ar
     3    41    42   ar
     4    38    39   ar
     5    38    37   ar
     6    39    44   ar
     7    37    36   ar
     8    42    43   ar
     9    44    43   ar
    10    44    36   ar
    11    46    45   ar
    12    36    35    1
    13    47    45   ar
    14    45    34    1
    15    35    34    1
    16    34    33    1
    17     8     7    2
    18    33    31   am
    19    14    12   ar
    20    32    31    2
    21    16    15    2
    22     7     9   am
    23     7     2    1
    24    31    26    1
    25    10     9    1
    26    10    15    1
    27    10    11    1
    28    12    11    1
    29    12    13   ar
    30     2     1    1
    31     2     3    1
    32    15    17   am
    33     5     4    1
    34    26    25    1
    35    26    27    1
    36    24    23    2
    37    28    27    1
    38     4     3    1
    39     4     6    1
    40    17    18    1
    41    23    25   am
    42    23    18    1
    43    27    29    1
    44    18    19    1
    45    29    30    1
    46    19    21    1
    47    19    20    1
    48    22    21    1
