@<TRIPOS>MOLECULE
9939443
 70 74 0 0 0
SMALL
GASTEIGER

@<TRIPOS>ATOM
      1 S          -9.8731    2.3788   -4.4856 S.O2    1  LIG11       0.0908
      2 O          -7.4009    3.3097   -6.7751 O.3     1  LIG11      -0.4435
      3 O          -9.5197    1.5300   -5.6020 O.2     1  LIG11      -0.1484
      4 O         -11.2699    2.5728   -4.1332 O.2     1  LIG11      -0.1484
      5 O          -4.5756    3.9694   -6.0592 O.3     1  LIG11      -0.4715
      6 O          -7.8194    3.0117   -9.5080 O.3     1  LIG11      -0.4914
      7 O          -6.2184    6.5761   -6.7763 O.3     1  LIG11      -0.3917
      8 N          -9.2713    3.9402   -4.7419 N.pl3   1  LIG11      -0.1950
      9 N          -7.7430    1.3884   -3.2206 N.ar    1  LIG11      -0.2351
     10 N          -7.5791    4.5533   -3.3750 N.ar    1  LIG11      -0.2073
     11 N          -5.2892    4.4752   -3.9816 N.ar    1  LIG11      -0.1899
     12 N          -5.2332    5.4005    1.0124 N.ar    1  LIG11      -0.2552
     13 N          -7.3566    5.6471    2.9663 N.ar    1  LIG11      -0.5621
     14 N          -8.8541    4.8701    1.4604 N.ar    1  LIG11      -0.1535
     15 N          -8.5894    5.4788    3.4582 N.ar    1  LIG11      -0.3597
     16 N          -9.5076    5.0139    2.6037 N.ar    1  LIG11      -0.0878
     17 C          -6.7495    0.4353    0.3102 C.3     1  LIG11      -0.0201
     18 C          -7.6037    0.9427   -0.8347 C.ar    1  LIG11      -0.0266
     19 C          -7.0237    1.1246    1.6498 C.3     1  LIG11      -0.0586
     20 C          -6.9026   -1.0809    0.4508 C.3     1  LIG11      -0.0586
     21 C          -9.0281    1.7835   -3.0137 C.ar    1  LIG11       0.1969
     22 C          -8.9366    1.3475   -0.6817 C.ar    1  LIG11      -0.0535
     23 C          -7.0708    0.9753   -2.1257 C.ar    1  LIG11       0.0332
     24 C          -9.6686    1.7780   -1.7860 C.ar    1  LIG11      -0.0160
     25 C          -7.8694    4.0986   -4.6039 C.ar    1  LIG11       0.1882
     26 C          -6.9487    3.7646   -5.5760 C.ar    1  LIG11       0.2307
     27 C          -5.6515    4.0787   -5.2240 C.ar    1  LIG11       0.2641
     28 C          -6.2744    4.6653   -3.0921 C.ar    1  LIG11       0.1659
     29 C          -5.9110    4.9416   -1.6905 C.ar    1  LIG11       0.0227
     30 C          -6.7982    2.2501   -7.4147 C.ar    1  LIG11       0.1702
     31 C          -6.8909    4.9964   -0.6838 C.ar    1  LIG11      -0.0252
     32 C          -4.5809    5.1226   -1.2924 C.ar    1  LIG11      -0.0328
     33 C          -4.6195    4.8028   -7.2267 C.3     1  LIG11       0.1143
     34 C          -7.0130    2.1546   -8.7998 C.ar    1  LIG11       0.1621
     35 C          -6.5256    5.2241    0.6405 C.ar    1  LIG11       0.0708
     36 C          -6.0055    1.2868   -6.7828 C.ar    1  LIG11      -0.0157
     37 C          -4.2966    5.3463    0.0446 C.ar    1  LIG11       0.0289
     38 C          -4.8306    6.2934   -6.9520 C.3     1  LIG11       0.0783
     39 C          -6.3394    1.1931   -9.5549 C.ar    1  LIG11      -0.0163
     40 C          -5.3515    0.3096   -7.5399 C.ar    1  LIG11      -0.0581
     41 C          -5.5033    0.2737   -8.9254 C.ar    1  LIG11      -0.0581
     42 C          -7.5476    5.2581    1.6901 C.ar    1  LIG11       0.0207
     43 C          -9.1612    3.0229   -9.0124 C.3     1  LIG11       0.0790
     44 H          -6.3174    7.5435   -6.7848 H       1  LIG11       0.2095
     45 H          -9.7776    4.6001   -4.1568 H       1  LIG11       0.1754
     46 H          -8.8189    5.6920    4.4250 H       1  LIG11       0.1651
     47 H          -5.7002    0.6487    0.0643 H       1  LIG11       0.0344
     48 H          -8.0168    0.8822    2.0428 H       1  LIG11       0.0235
     49 H          -6.9524    2.2122    1.5537 H       1  LIG11       0.0235
     50 H          -6.2902    0.8074    2.3993 H       1  LIG11       0.0235
     51 H          -7.9335   -1.3590    0.6972 H       1  LIG11       0.0235
     52 H          -6.2499   -1.4654    1.2417 H       1  LIG11       0.0235
     53 H          -6.6344   -1.5933   -0.4800 H       1  LIG11       0.0235
     54 H          -9.4211    1.3309    0.2917 H       1  LIG11       0.0622
     55 H          -6.0485    0.6568   -2.3184 H       1  LIG11       0.0833
     56 H         -10.6986    2.1013   -1.6782 H       1  LIG11       0.0653
     57 H          -7.9389    4.8506   -0.9346 H       1  LIG11       0.0646
     58 H          -3.7686    5.0826   -2.0134 H       1  LIG11       0.0640
     59 H          -5.3524    4.4297   -7.9448 H       1  LIG11       0.0720
     60 H          -3.6346    4.6838   -7.6928 H       1  LIG11       0.0720
     61 H          -5.8730    1.2835   -5.7051 H       1  LIG11       0.0655
     62 H          -3.2734    5.4870    0.3829 H       1  LIG11       0.0830
     63 H          -4.2946    6.6187   -6.0560 H       1  LIG11       0.0591
     64 H          -4.4878    6.8729   -7.8150 H       1  LIG11       0.0591
     65 H          -6.4792    1.1568  -10.6316 H       1  LIG11       0.0655
     66 H          -4.7160   -0.4206   -7.0454 H       1  LIG11       0.0619
     67 H          -4.9838   -0.4782   -9.5131 H       1  LIG11       0.0619
     68 H          -9.8261    3.2188   -9.8592 H       1  LIG11       0.0660
     69 H          -9.2935    3.8381   -8.2947 H       1  LIG11       0.0660
     70 H          -9.4597    2.0658   -8.5689 H       1  LIG11       0.0660
@<TRIPOS>BOND
     1     1    21    1
     2     1     8    1
     3     1     4    2
     4     1     3    2
     5     2    26    1
     6     2    30    1
     7     5    27    1
     8     5    33    1
     9     6    34    1
    10     6    43    1
    11     7    38    1
    12     8    25    1
    13     9    23   ar
    14     9    21   ar
    15    10    25   ar
    16    10    28   ar
    17    11    27   ar
    18    11    28   ar
    19    12    37   ar
    20    12    35   ar
    21    13    15   ar
    22    13    42   ar
    23    14    42   ar
    24    14    16   ar
    25    15    16   ar
    26    17    18    1
    27    17    20    1
    28    17    19    1
    29    18    23   ar
    30    18    22   ar
    31    21    24   ar
    32    22    24   ar
    33    25    26   ar
    34    26    27   ar
    35    28    29    1
    36    29    31   ar
    37    29    32   ar
    38    30    36   ar
    39    30    34   ar
    40    31    35   ar
    41    32    37   ar
    42    33    38    1
    43    34    39   ar
    44    35    42    1
    45    36    40   ar
    46    39    41   ar
    47    40    41   ar
    48     7    44    1
    49     8    45    1
    50    15    46    1
    51    17    47    1
    52    19    48    1
    53    19    49    1
    54    19    50    1
    55    20    51    1
    56    20    52    1
    57    20    53    1
    58    22    54    1
    59    23    55    1
    60    24    56    1
    61    31    57    1
    62    32    58    1
    63    33    59    1
    64    33    60    1
    65    36    61    1
    66    37    62    1
    67    38    63    1
    68    38    64    1
    69    39    65    1
    70    40    66    1
    71    41    67    1
    72    43    68    1
    73    43    69    1
    74    43    70    1
@<TRIPOS>MOLECULE
../1EDN/PCA2_17-21.pdb
 47 48 0 0 0
SMALL
GASTEIGER

@<TRIPOS>ATOM
      1  N         -4.4680    0.3970   -1.5420 N.3    17  LEU17      -0.1231
      2  CA        -5.5730   -0.5090   -1.8150 C.3    17  LEU17       0.1693
      3  CB        -5.9860   -1.2020   -0.4580 C.3    17  LEU17       0.0284
      4  CG        -7.1280   -2.2100   -0.5390 C.3    17  LEU17       0.0019
      5  CD1       -6.7120   -3.3620   -1.4700 C.3    17  LEU17       0.0001
      6  CD2       -7.4980   -2.5610    0.9130 C.3    17  LEU17       0.0001
      7  C         -6.7000    0.2280   -2.5610 C.2    17  LEU17       0.2592
      8  O         -7.1860   -0.2780   -3.5510 O.2    17  LEU17      -0.2718
      9  N         -7.2650    1.2690   -1.9650 N.am   18  ASP18      -0.1960
     10  CA        -8.5260    1.8930   -2.2590 C.3    18  ASP18       0.1840
     11  CB        -9.6810    1.0560   -1.6740 C.3    18  ASP18       0.1450
     12  CG       -11.0010    1.6360   -2.1090 C.2    18  ASP18       0.3671
     13  OD1      -11.5960    2.3310   -1.2790 O.co2  18  ASP18      -0.2456
     14  OD2      -11.5460    1.2700   -3.1630 O.co2  18  ASP18      -0.2456
     15  C         -8.5570    3.3770   -1.7380 C.2    18  ASP18       0.2622
     16  O         -8.6960    4.2620   -2.5680 O.2    18  ASP18      -0.2715
     17  N         -8.4180    3.5730   -0.4160 N.am   19  ILE19      -0.1963
     18  CA        -8.3980    4.9040    0.1930 C.3    19  ILE19       0.1727
     19  CB        -8.4260    4.8620    1.7600 C.3    19  ILE19       0.0290
     20  CG2       -7.7310    6.0060    2.5190 C.3    19  ILE19       0.0023
     21  CG1       -9.9240    4.5740    2.2500 C.3    19  ILE19       0.0022
     22  CD1      -10.9740    5.6950    2.0110 C.3    19  ILE19       0.0001
     23  C         -7.1570    5.7010   -0.3260 C.2    19  ILE19       0.2616
     24  O         -7.3050    6.7970   -0.9200 O.2    19  ILE19      -0.2715
     25  N         -5.9900    5.0720   -0.2260 N.am   20  ILE20      -0.1963
     26  CA        -4.7520    5.3490   -0.9430 C.3    20  ILE20       0.1727
     27  CB        -3.5230    4.9310   -0.1080 C.3    20  ILE20       0.0290
     28  CG2       -2.1210    5.5060   -0.7390 C.3    20  ILE20       0.0023
     29  CG1       -3.5940    5.4760    1.3470 C.3    20  ILE20       0.0022
     30  CD1       -2.3570    5.1940    2.2260 C.3    20  ILE20       0.0001
     31  C         -4.7590    4.7050   -2.3650 C.2    20  ILE20       0.2617
     32  O         -4.2060    3.6200   -2.5900 O.2    20  ILE20      -0.2715
     33  N         -5.4060    5.3330   -3.3880 N.am   21  TRP21      -0.1938
     34  CA        -5.3950    4.7680   -4.7850 C.3    21  TRP21       0.2021
     35  CB        -6.6210    3.8650   -5.0310 C.3    21  TRP21       0.0612
     36  CG        -6.7890    3.3770   -6.4480 C.ar   21  TRP21       0.0007
     37  CD1       -7.1340    4.1960   -7.4760 C.ar   21  TRP21       0.0946
     38  NE1       -7.1740    3.4060   -8.6160 N.ar   21  TRP21      -0.2442
     39  CE2       -6.9360    2.0750   -8.3350 C.ar   21  TRP21       0.0810
     40  CZ2       -6.8300    1.0510   -9.2060 C.ar   21  TRP21       0.0191
     41  CH2       -6.3330   -0.2010   -8.7710 C.ar   21  TRP21       0.0015
     42  CZ3       -5.9560   -0.2520   -7.3640 C.ar   21  TRP21       0.0001
     43  CE3       -6.0150    0.8940   -6.5860 C.ar   21  TRP21       0.0012
     44  CD2       -6.6320    2.0560   -6.9830 C.ar   21  TRP21       0.0152
     45  C         -5.1960    5.8550   -5.8260 C.2    21  TRP21       0.3845
     46  O         -4.1840    5.6720   -6.5070 O.co2  21  TRP21      -0.2437
     47  OXT       -5.9640    6.8330   -6.0170 O.co2  21  TRP21      -0.2437
@<TRIPOS>BOND
     1    40    41   ar
     2    40    39   ar
     3    41    42   ar
     4    38    39   ar
     5    38    37   ar
     6    39    44   ar
     7    37    36   ar
     8    42    43   ar
     9    44    43   ar
    10    44    36   ar
    11    46    45   ar
    12    36    35    1
    13    47    45   ar
    14    45    34    1
    15    35    34    1
    16    34    33    1
    17     8     7    2
    18    33    31   am
    19    14    12   ar
    20    32    31    2
    21    16    15    2
    22     7     9   am
    23     7     2    1
    24    31    26    1
    25    10     9    1
    26    10    15    1
    27    10    11    1
    28    12    11    1
    29    12    13   ar
    30     2     1    1
    31     2     3    1
    32    15    17   am
    33     5     4    1
    34    26    25    1
    35    26    27    1
    36    24    23    2
    37    28    27    1
    38     4     3    1
    39     4     6    1
    40    17    18    1
    41    23    25   am
    42    23    18    1
    43    27    29    1
    44    18    19    1
    45    29    30    1
    46    19    21    1
    47    19    20    1
    48    22    21    1
