@<TRIPOS>MOLECULE
123882
 117 122 0 0 0
SMALL
GASTEIGER

@<TRIPOS>ATOM
      1 S          -6.6620    1.8288    3.1658 S.2     3  UNK33      -0.0993
      2 O          -6.9585    2.2502   -8.6110 O.2     1  UNK11      -0.2755
      3 O          -2.4702    5.7374   -0.4095 O.2     4  LEU44      -0.2738
      4 O          -8.5957    0.2261   -4.5487 O.2     1  UNK11      -0.2737
      5 O          -5.2412    3.7201   -2.4410 O.2     5  TRP55      -0.2738
      6 O          -7.6419    4.2065   -4.9065 O.2     6  ASP66      -0.2738
      7 O          -3.4398    1.5082    2.2358 O.2     3  UNK33      -0.2734
      8 O          -4.5176    0.7133   -1.7065 O.2     2  ASP22      -0.2737
      9 OD1        -3.8533    7.3358   -5.1088 O.co2   6  ASP66      -0.5497
     10 OD2        -3.0067    6.2108   -6.9156 O.co2   6  ASP66      -0.5497
     11 OD1        -7.4220   -1.7480   -0.4952 O.co2   2  ASP22      -0.5497
     12 OD2        -6.0962   -3.4203   -1.2935 O.co2   2  ASP22      -0.5497
     13 N          -6.0958    0.2306   -9.2574 N.am    1  UNK11      -0.2984
     14 N          -6.5309   -1.6396  -11.4331 N.pl3   1  UNK11      -0.3269
     15 N          -6.1249    2.6423   -5.6114 N.am    1  UNK11      -0.3020
     16 N          -4.6404    5.0529   -0.1968 N.am    5  TRP55      -0.3022
     17 N          -4.0453    2.5370    0.2938 N.am    4  LEU44      -0.3022
     18 N          -5.4354    5.6089   -3.7233 N.am    6  ASP66      -0.3021
     19 N          -6.5176    0.6981   -3.6954 N.am    2  ASP22      -0.3021
     20 N          -6.1946    0.6038   -0.1479 N.am    3  UNK33      -0.2984
     21 NE1        -9.1250    3.9399   -0.4137 N.ar    5  TRP55      -0.3604
     22 C          -5.9769   -1.2164   -9.0309 C.3     1  UNK11       0.0304
     23 C          -5.9301    0.6758  -10.6432 C.3     1  UNK11       0.0304
     24 C          -5.6403   -2.0034  -10.3100 C.3     1  UNK11       0.0280
     25 C          -6.7739   -0.1771  -11.6042 C.3     1  UNK11       0.0280
     26 C          -6.5976    1.1151   -8.3098 C.2     1  UNK11       0.2179
     27 C          -6.6502    0.5909   -6.8891 C.3     1  UNK11       0.0510
     28 C          -7.1429    1.6306   -5.8831 C.3     1  UNK11       0.1076
     29 CA         -2.8573    3.4074    0.2371 C.3     4  LEU44       0.0997
     30 CB         -1.8552    2.7954   -0.7657 C.3     4  LEU44      -0.0236
     31 CA         -5.1799    5.8703   -1.2821 C.3     5  TRP55       0.1034
     32 C          -7.6516   -2.4252  -11.7330 C.ar    1  UNK11       0.0298
     33 CG         -0.4790    3.4771   -0.9064 C.3     4  LEU44      -0.0446
     34 CB         -6.5299    6.5092   -0.9319 C.3     5  TRP55       0.0013
     35 C          -3.2742    4.8403   -0.1678 C.2     4  LEU44       0.2340
     36 CA         -5.2733    4.8471   -4.9586 C.3     6  ASP66       0.1045
     37 C          -7.5338    0.8461   -4.6154 C.2     1  UNK11       0.2344
     38 CG         -7.5786    5.5490   -0.4426 C.ar    5  TRP55      -0.0201
     39 C          -5.2823    4.9519   -2.5214 C.2     5  TRP55       0.2343
     40 C          -6.4746    3.8925   -5.1346 C.2     6  ASP66       0.2343
     41 CA         -6.7111   -0.0564   -2.4564 C.3     2  ASP22       0.1045
     42 CD2         0.2599    3.5968    0.4244 C.3     4  LEU44      -0.0626
     43 CD1         0.3820    2.7011   -1.9105 C.3     4  LEU44      -0.0626
     44 C          -5.3270    0.5077    1.0237 C.3     3  UNK33       0.1311
     45 C          -8.2720   -2.2933  -12.9887 C.ar    1  UNK11      -0.0407
     46 C          -8.2140   -3.3489  -10.8417 C.ar    1  UNK11      -0.0407
     47 CD2        -8.0363    5.3698    0.9047 C.ar    5  TRP55       0.0029
     48 C          -4.1895    1.5593    1.2559 C.2     3  UNK33       0.2390
     49 CB         -5.1945    5.7426   -6.1869 C.3     6  ASP66       0.0138
     50 CD1        -8.2969    4.6649   -1.2247 C.ar    5  TRP55       0.0060
     51 CE2        -9.0173    4.3765    0.8851 C.ar    5  TRP55       0.0467
     52 C          -5.6854    0.4531   -1.4187 C.2     2  ASP22       0.2345
     53 CB         -6.4998   -1.5519   -2.6705 C.3     2  ASP22       0.0138
     54 C          -9.4086   -3.0316  -13.3331 C.ar    1  UNK11      -0.0600
     55 C          -9.3562   -4.0872  -11.1769 C.ar    1  UNK11      -0.0600
     56 C          -6.2743    0.4519    2.2170 C.ar    3  UNK33       0.0189
     57 CE3        -7.7054    5.9575    2.1436 C.ar    5  TRP55      -0.0523
     58 C          -9.9546   -3.9275  -12.4219 C.ar    1  UNK11      -0.0616
     59 CZ2        -9.6960    3.9567    2.0367 C.ar    5  TRP55      -0.0378
     60 CG         -3.8893    6.5052   -6.0659 C.2     6  ASP66       0.0440
     61 CZ3        -8.3744    5.5501    3.3044 C.ar    5  TRP55      -0.0611
     62 C          -7.0196   -0.6460    2.6209 C.ar    3  UNK33      -0.0493
     63 CH2        -9.3598    4.5678    3.2480 C.ar    5  TRP55      -0.0598
     64 CG         -6.7024   -2.3150   -1.3681 C.2     2  ASP22       0.0440
     65 C          -7.9052   -0.3518    3.6961 C.ar    3  UNK33      -0.0544
     66 C          -7.8023    0.9592    4.0965 C.ar    3  UNK33      -0.0240
     67 H          -5.1431    2.4014   -5.6614 H       1  UNK11       0.1495
     68 H          -5.1817    4.2114   -0.0078 H       5  TRP55       0.1495
     69 H          -4.4810    2.3313   -0.6082 H       4  LEU44       0.1495
     70 H          -4.9982    6.5353   -3.7845 H       6  ASP66       0.1495
     71 H          -5.8073    1.4266   -3.6691 H       2  ASP22       0.1495
     72 H          -7.0120   -0.0133   -0.0454 H       3  UNK33       0.1498
     73 HE1        -9.7278    3.1921   -0.7260 H       5  TRP55       0.1653
     74 H          -6.9318   -1.5679   -8.6258 H       1  UNK11       0.0480
     75 H          -5.2062   -1.3848   -8.2714 H       1  UNK11       0.0480
     76 H          -4.8645    0.5795  -10.8841 H       1  UNK11       0.0480
     77 H          -6.1885    1.7328  -10.7593 H       1  UNK11       0.0480
     78 H          -4.6142   -1.7587  -10.6143 H       1  UNK11       0.0479
     79 H          -5.6298   -3.0820  -10.1162 H       1  UNK11       0.0479
     80 H          -7.8302    0.0574  -11.4143 H       1  UNK11       0.0479
     81 H          -6.5416    0.1096  -12.6361 H       1  UNK11       0.0479
     82 H          -5.6519    0.2351   -6.6065 H       1  UNK11       0.0381
     83 H          -7.3326   -0.2672   -6.8804 H       1  UNK11       0.0381
     84 H          -8.0491    2.1350   -6.2395 H       1  UNK11       0.0599
     85 HA         -2.4219    3.4682    1.2390 H       4  LEU44       0.0594
     86 HB1        -2.3260    2.7764   -1.7594 H       4  LEU44       0.0290
     87 HB2        -1.6936    1.7429   -0.4945 H       4  LEU44       0.0290
     88 HA         -4.4609    6.6638   -1.5205 H       5  TRP55       0.0598
     89 HG         -0.6103    4.4829   -1.3197 H       4  LEU44       0.0296
     90 HB1        -6.9279    7.0451   -1.8029 H       5  TRP55       0.0337
     91 HB2        -6.3625    7.2698   -0.1584 H       5  TRP55       0.0337
     92 HA         -4.3541    4.2549   -4.8556 H       6  ASP66       0.0598
     93 HA         -7.7284    0.1564   -2.1053 H       2  ASP22       0.0598
     94 HD21        0.3690    2.6198    0.9066 H       4  LEU44       0.0232
     95 HD22       -0.2681    4.2632    1.1126 H       4  LEU44       0.0232
     96 HD23        1.2616    4.0139    0.2752 H       4  LEU44       0.0232
     97 HD11        0.5822    1.6826   -1.5617 H       4  LEU44       0.0232
     98 HD12        1.3444    3.2009   -2.0657 H       4  LEU44       0.0232
     99 HD13       -0.1174    2.6354   -2.8832 H       4  LEU44       0.0232
    100 H          -4.8066   -0.4564    0.9393 H       3  UNK33       0.0651
    101 H          -7.8560   -1.6097  -13.7245 H       1  UNK11       0.0636
    102 H          -7.8036   -3.4930   -9.8476 H       1  UNK11       0.0636
    103 HB1        -6.0323    6.4481   -6.2318 H       6  ASP66       0.0348
    104 HB2        -5.2090    5.1503   -7.1095 H       6  ASP66       0.0348
    105 HD1        -8.2659    4.4687   -2.2897 H       5  TRP55       0.0810
    106 HB1        -5.4854   -1.7434   -3.0458 H       2  ASP22       0.0348
    107 HB2        -7.2009   -1.9468   -3.4144 H       2  ASP22       0.0348
    108 H          -9.8621   -2.8999  -14.3107 H       1  UNK11       0.0618
    109 H          -9.7805   -4.7779  -10.4526 H       1  UNK11       0.0618
    110 HE3        -6.9291    6.7143    2.2000 H       5  TRP55       0.0624
    111 H         -10.8434   -4.4963  -12.6778 H       1  UNK11       0.0618
    112 HZ2       -10.4427    3.1709    1.9949 H       5  TRP55       0.0638
    113 HZ3        -8.1095    5.9974    4.2586 H       5  TRP55       0.0618
    114 H          -6.9655   -1.6069    2.1168 H       3  UNK33       0.0626
    115 HH2        -9.8599    4.2535    4.1599 H       5  TRP55       0.0618
    116 H          -8.5923   -1.0652    4.1313 H       3  UNK33       0.0623
    117 H          -8.3554    1.4596    4.8779 H       3  UNK33       0.0693
@<TRIPOS>BOND
     1     1    56   ar
     2     1    66   ar
     3     2    26    2
     4     3    35    2
     5     4    37    2
     6     5    39    2
     7     6    40    2
     8     7    48    2
     9     8    52    2
    10     9    60   ar
    11    10    60   ar
    12    11    64   ar
    13    12    64   ar
    14    13    22    1
    15    13    23    1
    16    14    24    1
    17    14    25    1
    18    14    32    1
    19    15    28    1
    20    15    40   am
    21    16    35   am
    22    16    31    1
    23    17    48   am
    24    17    29    1
    25    18    39   am
    26    18    36    1
    27    19    37   am
    28    19    41    1
    29    20    52   am
    30    20    44    1
    31    21    50   ar
    32    21    51   ar
    33    22    24    1
    34    23    25    1
    35    26    27    1
    36    26    13   am
    37    28    37    1
    38    28    27    1
    39    29    35    1
    40    29    30    1
    41    30    33    1
    42    31    39    1
    43    31    34    1
    44    32    45   ar
    45    32    46   ar
    46    33    43    1
    47    33    42    1
    48    34    38    1
    49    36    40    1
    50    36    49    1
    51    38    47   ar
    52    38    50   ar
    53    41    52    1
    54    41    53    1
    55    44    48    1
    56    44    56    1
    57    45    54   ar
    58    46    55   ar
    59    47    57   ar
    60    47    51   ar
    61    49    60    1
    62    51    59   ar
    63    53    64    1
    64    54    58   ar
    65    55    58   ar
    66    56    62   ar
    67    57    61   ar
    68    59    63   ar
    69    61    63   ar
    70    62    65   ar
    71    65    66   ar
    72    15    67    1
    73    16    68    1
    74    17    69    1
    75    18    70    1
    76    19    71    1
    77    20    72    1
    78    21    73    1
    79    22    74    1
    80    22    75    1
    81    23    76    1
    82    23    77    1
    83    24    78    1
    84    24    79    1
    85    25    80    1
    86    25    81    1
    87    27    82    1
    88    27    83    1
    89    28    84    1
    90    29    85    1
    91    30    86    1
    92    30    87    1
    93    31    88    1
    94    33    89    1
    95    34    90    1
    96    34    91    1
    97    36    92    1
    98    41    93    1
    99    42    94    1
   100    42    95    1
   101    42    96    1
   102    43    97    1
   103    43    98    1
   104    43    99    1
   105    44   100    1
   106    45   101    1
   107    46   102    1
   108    49   103    1
   109    49   104    1
   110    50   105    1
   111    53   106    1
   112    53   107    1
   113    54   108    1
   114    55   109    1
   115    57   110    1
   116    58   111    1
   117    59   112    1
   118    61   113    1
   119    62   114    1
   120    63   115    1
   121    65   116    1
   122    66   117    1
@<TRIPOS>MOLECULE
../1EDN/PCA2_17-21.pdb
 47 48 0 0 0
SMALL
GASTEIGER

@<TRIPOS>ATOM
      1  N         -4.4680    0.3970   -1.5420 N.3    17  LEU17      -0.1231
      2  CA        -5.5730   -0.5090   -1.8150 C.3    17  LEU17       0.1693
      3  CB        -5.9860   -1.2020   -0.4580 C.3    17  LEU17       0.0284
      4  CG        -7.1280   -2.2100   -0.5390 C.3    17  LEU17       0.0019
      5  CD1       -6.7120   -3.3620   -1.4700 C.3    17  LEU17       0.0001
      6  CD2       -7.4980   -2.5610    0.9130 C.3    17  LEU17       0.0001
      7  C         -6.7000    0.2280   -2.5610 C.2    17  LEU17       0.2592
      8  O         -7.1860   -0.2780   -3.5510 O.2    17  LEU17      -0.2718
      9  N         -7.2650    1.2690   -1.9650 N.am   18  ASP18      -0.1960
     10  CA        -8.5260    1.8930   -2.2590 C.3    18  ASP18       0.1840
     11  CB        -9.6810    1.0560   -1.6740 C.3    18  ASP18       0.1450
     12  CG       -11.0010    1.6360   -2.1090 C.2    18  ASP18       0.3671
     13  OD1      -11.5960    2.3310   -1.2790 O.co2  18  ASP18      -0.2456
     14  OD2      -11.5460    1.2700   -3.1630 O.co2  18  ASP18      -0.2456
     15  C         -8.5570    3.3770   -1.7380 C.2    18  ASP18       0.2622
     16  O         -8.6960    4.2620   -2.5680 O.2    18  ASP18      -0.2715
     17  N         -8.4180    3.5730   -0.4160 N.am   19  ILE19      -0.1963
     18  CA        -8.3980    4.9040    0.1930 C.3    19  ILE19       0.1727
     19  CB        -8.4260    4.8620    1.7600 C.3    19  ILE19       0.0290
     20  CG2       -7.7310    6.0060    2.5190 C.3    19  ILE19       0.0023
     21  CG1       -9.9240    4.5740    2.2500 C.3    19  ILE19       0.0022
     22  CD1      -10.9740    5.6950    2.0110 C.3    19  ILE19       0.0001
     23  C         -7.1570    5.7010   -0.3260 C.2    19  ILE19       0.2616
     24  O         -7.3050    6.7970   -0.9200 O.2    19  ILE19      -0.2715
     25  N         -5.9900    5.0720   -0.2260 N.am   20  ILE20      -0.1963
     26  CA        -4.7520    5.3490   -0.9430 C.3    20  ILE20       0.1727
     27  CB        -3.5230    4.9310   -0.1080 C.3    20  ILE20       0.0290
     28  CG2       -2.1210    5.5060   -0.7390 C.3    20  ILE20       0.0023
     29  CG1       -3.5940    5.4760    1.3470 C.3    20  ILE20       0.0022
     30  CD1       -2.3570    5.1940    2.2260 C.3    20  ILE20       0.0001
     31  C         -4.7590    4.7050   -2.3650 C.2    20  ILE20       0.2617
     32  O         -4.2060    3.6200   -2.5900 O.2    20  ILE20      -0.2715
     33  N         -5.4060    5.3330   -3.3880 N.am   21  TRP21      -0.1938
     34  CA        -5.3950    4.7680   -4.7850 C.3    21  TRP21       0.2021
     35  CB        -6.6210    3.8650   -5.0310 C.3    21  TRP21       0.0612
     36  CG        -6.7890    3.3770   -6.4480 C.ar   21  TRP21       0.0007
     37  CD1       -7.1340    4.1960   -7.4760 C.ar   21  TRP21       0.0946
     38  NE1       -7.1740    3.4060   -8.6160 N.ar   21  TRP21      -0.2442
     39  CE2       -6.9360    2.0750   -8.3350 C.ar   21  TRP21       0.0810
     40  CZ2       -6.8300    1.0510   -9.2060 C.ar   21  TRP21       0.0191
     41  CH2       -6.3330   -0.2010   -8.7710 C.ar   21  TRP21       0.0015
     42  CZ3       -5.9560   -0.2520   -7.3640 C.ar   21  TRP21       0.0001
     43  CE3       -6.0150    0.8940   -6.5860 C.ar   21  TRP21       0.0012
     44  CD2       -6.6320    2.0560   -6.9830 C.ar   21  TRP21       0.0152
     45  C         -5.1960    5.8550   -5.8260 C.2    21  TRP21       0.3845
     46  O         -4.1840    5.6720   -6.5070 O.co2  21  TRP21      -0.2437
     47  OXT       -5.9640    6.8330   -6.0170 O.co2  21  TRP21      -0.2437
@<TRIPOS>BOND
     1    40    41   ar
     2    40    39   ar
     3    41    42   ar
     4    38    39   ar
     5    38    37   ar
     6    39    44   ar
     7    37    36   ar
     8    42    43   ar
     9    44    43   ar
    10    44    36   ar
    11    46    45   ar
    12    36    35    1
    13    47    45   ar
    14    45    34    1
    15    35    34    1
    16    34    33    1
    17     8     7    2
    18    33    31   am
    19    14    12   ar
    20    32    31    2
    21    16    15    2
    22     7     9   am
    23     7     2    1
    24    31    26    1
    25    10     9    1
    26    10    15    1
    27    10    11    1
    28    12    11    1
    29    12    13   ar
    30     2     1    1
    31     2     3    1
    32    15    17   am
    33     5     4    1
    34    26    25    1
    35    26    27    1
    36    24    23    2
    37    28    27    1
    38     4     3    1
    39     4     6    1
    40    17    18    1
    41    23    25   am
    42    23    18    1
    43    27    29    1
    44    18    19    1
    45    29    30    1
    46    19    21    1
    47    19    20    1
    48    22    21    1
