@<TRIPOS>MOLECULE
6918493
 49 51 0 0 0
SMALL
GASTEIGER

@<TRIPOS>ATOM
      1 O          -9.8436    2.0325   -1.6231 O.3     1  LIG11      -0.3632
      2 O          -6.9984    3.7833   -3.4170 O.3     1  LIG11      -0.4495
      3 O          -8.9957    5.6180   -3.0406 O.co2   1  LIG11      -0.5459
      4 O         -10.4487    4.1497   -3.9912 O.co2   1  LIG11      -0.5459
      5 N          -5.7773    4.9760   -4.9567 N.ar    1  LIG11      -0.2002
      6 N          -7.1271    3.1455   -5.6622 N.ar    1  LIG11      -0.2002
      7 C          -8.5086    2.5900   -1.8343 C.3     1  LIG11       0.1609
      8 C          -8.3596    3.2999   -3.2232 C.3     1  LIG11       0.1791
      9 C          -8.2600    3.5858   -0.6624 C.ar    1  LIG11      -0.0075
     10 C          -7.5700    1.3454   -1.6384 C.ar    1  LIG11      -0.0075
     11 C          -9.3155    4.0451    0.1472 C.ar    1  LIG11      -0.0554
     12 C          -6.7148    0.8497   -2.6373 C.ar    1  LIG11      -0.0554
     13 C          -6.9633    4.0492   -0.3665 C.ar    1  LIG11      -0.0554
     14 C          -7.6091    0.6399   -0.4145 C.ar    1  LIG11      -0.0554
     15 C          -9.3648    4.4655   -3.4083 C.2     1  LIG11       0.0856
     16 C         -10.3646    1.1913   -2.6410 C.3     1  LIG11       0.0382
     17 C          -9.0825    4.9067    1.2228 C.ar    1  LIG11      -0.0614
     18 C          -5.9151   -0.2770   -2.4155 C.ar    1  LIG11      -0.0614
     19 C          -6.7307    4.9152    0.7055 C.ar    1  LIG11      -0.0614
     20 C          -6.8131   -0.4868   -0.1937 C.ar    1  LIG11      -0.0614
     21 C          -7.7892    5.3385    1.5045 C.ar    1  LIG11      -0.0617
     22 C          -5.9627   -0.9433   -1.1947 C.ar    1  LIG11      -0.0617
     23 C          -6.6932    4.0201   -4.7395 C.ar    1  LIG11       0.3191
     24 C          -5.3864    5.1519   -6.2329 C.ar    1  LIG11       0.0453
     25 C          -6.7113    3.3407   -6.9258 C.ar    1  LIG11       0.0453
     26 C          -5.8321    4.3487   -7.2647 C.ar    1  LIG11      -0.0193
     27 C          -4.4191    6.2637   -6.5047 C.3     1  LIG11      -0.0221
     28 C          -7.2287    2.3984   -7.9679 C.3     1  LIG11      -0.0221
     29 H          -8.5935    2.5536   -3.9931 H       1  LIG11       0.0834
     30 H         -10.3386    3.7453   -0.0703 H       1  LIG11       0.0621
     31 H          -6.6533    1.3222   -3.6125 H       1  LIG11       0.0621
     32 H          -6.1223    3.7445   -0.9853 H       1  LIG11       0.0621
     33 H          -8.2783    0.9778    0.3755 H       1  LIG11       0.0621
     34 H         -11.2903    0.7489   -2.2611 H       1  LIG11       0.0524
     35 H          -9.6836    0.3729   -2.8876 H       1  LIG11       0.0524
     36 H         -10.6205    1.7470   -3.5428 H       1  LIG11       0.0524
     37 H          -9.9185    5.2533    1.8219 H       1  LIG11       0.0618
     38 H          -5.2590   -0.6293   -3.2059 H       1  LIG11       0.0618
     39 H          -5.7232    5.2699    0.8994 H       1  LIG11       0.0618
     40 H          -6.8645   -1.0028    0.7602 H       1  LIG11       0.0618
     41 H          -7.6114    6.0225    2.3276 H       1  LIG11       0.0618
     42 H          -5.3414   -1.8175   -1.0272 H       1  LIG11       0.0618
     43 H          -5.5060    4.5008   -8.2850 H       1  LIG11       0.0653
     44 H          -4.2030    6.8267   -5.5901 H       1  LIG11       0.0293
     45 H          -4.8373    6.9581   -7.2394 H       1  LIG11       0.0293
     46 H          -3.4776    5.8590   -6.8873 H       1  LIG11       0.0293
     47 H          -7.9330    1.6825   -7.5312 H       1  LIG11       0.0293
     48 H          -6.4015    1.8336   -8.4098 H       1  LIG11       0.0293
     49 H          -7.7498    2.9504   -8.7559 H       1  LIG11       0.0293
@<TRIPOS>BOND
     1     1     7    1
     2     1    16    1
     3     2     8    1
     4     2    23    1
     5     3    15   ar
     6     4    15   ar
     7     5    23   ar
     8     5    24   ar
     9     6    23   ar
    10     6    25   ar
    11     7     8    1
    12     7     9    1
    13     7    10    1
    14     8    15    1
    15     9    11   ar
    16     9    13   ar
    17    10    12   ar
    18    10    14   ar
    19    11    17   ar
    20    12    18   ar
    21    13    19   ar
    22    14    20   ar
    23    17    21   ar
    24    18    22   ar
    25    19    21   ar
    26    20    22   ar
    27    24    26   ar
    28    24    27    1
    29    25    26   ar
    30    25    28    1
    31     8    29    1
    32    11    30    1
    33    12    31    1
    34    13    32    1
    35    14    33    1
    36    16    34    1
    37    16    35    1
    38    16    36    1
    39    17    37    1
    40    18    38    1
    41    19    39    1
    42    20    40    1
    43    21    41    1
    44    22    42    1
    45    26    43    1
    46    27    44    1
    47    27    45    1
    48    27    46    1
    49    28    47    1
    50    28    48    1
    51    28    49    1
@<TRIPOS>MOLECULE
../1EDN/PCA2_17-21.pdb
 47 48 0 0 0
SMALL
GASTEIGER

@<TRIPOS>ATOM
      1  N         -4.4680    0.3970   -1.5420 N.3    17  LEU17      -0.1231
      2  CA        -5.5730   -0.5090   -1.8150 C.3    17  LEU17       0.1693
      3  CB        -5.9860   -1.2020   -0.4580 C.3    17  LEU17       0.0284
      4  CG        -7.1280   -2.2100   -0.5390 C.3    17  LEU17       0.0019
      5  CD1       -6.7120   -3.3620   -1.4700 C.3    17  LEU17       0.0001
      6  CD2       -7.4980   -2.5610    0.9130 C.3    17  LEU17       0.0001
      7  C         -6.7000    0.2280   -2.5610 C.2    17  LEU17       0.2592
      8  O         -7.1860   -0.2780   -3.5510 O.2    17  LEU17      -0.2718
      9  N         -7.2650    1.2690   -1.9650 N.am   18  ASP18      -0.1960
     10  CA        -8.5260    1.8930   -2.2590 C.3    18  ASP18       0.1840
     11  CB        -9.6810    1.0560   -1.6740 C.3    18  ASP18       0.1450
     12  CG       -11.0010    1.6360   -2.1090 C.2    18  ASP18       0.3671
     13  OD1      -11.5960    2.3310   -1.2790 O.co2  18  ASP18      -0.2456
     14  OD2      -11.5460    1.2700   -3.1630 O.co2  18  ASP18      -0.2456
     15  C         -8.5570    3.3770   -1.7380 C.2    18  ASP18       0.2622
     16  O         -8.6960    4.2620   -2.5680 O.2    18  ASP18      -0.2715
     17  N         -8.4180    3.5730   -0.4160 N.am   19  ILE19      -0.1963
     18  CA        -8.3980    4.9040    0.1930 C.3    19  ILE19       0.1727
     19  CB        -8.4260    4.8620    1.7600 C.3    19  ILE19       0.0290
     20  CG2       -7.7310    6.0060    2.5190 C.3    19  ILE19       0.0023
     21  CG1       -9.9240    4.5740    2.2500 C.3    19  ILE19       0.0022
     22  CD1      -10.9740    5.6950    2.0110 C.3    19  ILE19       0.0001
     23  C         -7.1570    5.7010   -0.3260 C.2    19  ILE19       0.2616
     24  O         -7.3050    6.7970   -0.9200 O.2    19  ILE19      -0.2715
     25  N         -5.9900    5.0720   -0.2260 N.am   20  ILE20      -0.1963
     26  CA        -4.7520    5.3490   -0.9430 C.3    20  ILE20       0.1727
     27  CB        -3.5230    4.9310   -0.1080 C.3    20  ILE20       0.0290
     28  CG2       -2.1210    5.5060   -0.7390 C.3    20  ILE20       0.0023
     29  CG1       -3.5940    5.4760    1.3470 C.3    20  ILE20       0.0022
     30  CD1       -2.3570    5.1940    2.2260 C.3    20  ILE20       0.0001
     31  C         -4.7590    4.7050   -2.3650 C.2    20  ILE20       0.2617
     32  O         -4.2060    3.6200   -2.5900 O.2    20  ILE20      -0.2715
     33  N         -5.4060    5.3330   -3.3880 N.am   21  TRP21      -0.1938
     34  CA        -5.3950    4.7680   -4.7850 C.3    21  TRP21       0.2021
     35  CB        -6.6210    3.8650   -5.0310 C.3    21  TRP21       0.0612
     36  CG        -6.7890    3.3770   -6.4480 C.ar   21  TRP21       0.0007
     37  CD1       -7.1340    4.1960   -7.4760 C.ar   21  TRP21       0.0946
     38  NE1       -7.1740    3.4060   -8.6160 N.ar   21  TRP21      -0.2442
     39  CE2       -6.9360    2.0750   -8.3350 C.ar   21  TRP21       0.0810
     40  CZ2       -6.8300    1.0510   -9.2060 C.ar   21  TRP21       0.0191
     41  CH2       -6.3330   -0.2010   -8.7710 C.ar   21  TRP21       0.0015
     42  CZ3       -5.9560   -0.2520   -7.3640 C.ar   21  TRP21       0.0001
     43  CE3       -6.0150    0.8940   -6.5860 C.ar   21  TRP21       0.0012
     44  CD2       -6.6320    2.0560   -6.9830 C.ar   21  TRP21       0.0152
     45  C         -5.1960    5.8550   -5.8260 C.2    21  TRP21       0.3845
     46  O         -4.1840    5.6720   -6.5070 O.co2  21  TRP21      -0.2437
     47  OXT       -5.9640    6.8330   -6.0170 O.co2  21  TRP21      -0.2437
@<TRIPOS>BOND
     1    40    41   ar
     2    40    39   ar
     3    41    42   ar
     4    38    39   ar
     5    38    37   ar
     6    39    44   ar
     7    37    36   ar
     8    42    43   ar
     9    44    43   ar
    10    44    36   ar
    11    46    45   ar
    12    36    35    1
    13    47    45   ar
    14    45    34    1
    15    35    34    1
    16    34    33    1
    17     8     7    2
    18    33    31   am
    19    14    12   ar
    20    32    31    2
    21    16    15    2
    22     7     9   am
    23     7     2    1
    24    31    26    1
    25    10     9    1
    26    10    15    1
    27    10    11    1
    28    12    11    1
    29    12    13   ar
    30     2     1    1
    31     2     3    1
    32    15    17   am
    33     5     4    1
    34    26    25    1
    35    26    27    1
    36    24    23    2
    37    28    27    1
    38     4     3    1
    39     4     6    1
    40    17    18    1
    41    23    25   am
    42    23    18    1
    43    27    29    1
    44    18    19    1
    45    29    30    1
    46    19    21    1
    47    19    20    1
    48    22    21    1
