@<TRIPOS>MOLECULE
11672244
 106 111 0 0 0
SMALL
GASTEIGER

@<TRIPOS>ATOM
      1 O          -5.1765    2.6223   -2.2562 O.3     1  LIG11      -0.4607
      2 O          -8.0594    4.0683    3.7089 O.2     1  LIG11      -0.2968
      3 O          -8.5474    4.2206   -7.2766 O.co2   1  LIG11      -0.5492
      4 O          -7.1288    5.8744   -7.9121 O.co2   1  LIG11      -0.5492
      5 O          -4.7219    0.8902   -3.7219 O.2     1  LIG11      -0.2456
      6 O          -7.3340   -1.4054    3.0327 O.3     1  LIG11      -0.5067
      7 O          -4.8293   -3.2324   -2.7338 O.2     1  LIG11      -0.2705
      8 O          -6.8279   -6.7287   -5.7593 O.co2   1  LIG11      -0.5452
      9 O          -4.6519   -6.7458   -6.4589 O.co2   1  LIG11      -0.5452
     10 N          -7.0296   -3.6040   -2.0716 N.am    1  LIG11      -0.2815
     11 C          -7.2686    4.9614   -2.7080 C.3     1  LIG11      -0.0160
     12 C          -7.9500    3.8397   -1.8400 C.3     1  LIG11      -0.0256
     13 C          -6.2998    4.2733   -3.8417 C.3     1  LIG11       0.0318
     14 C          -8.6452    4.2805   -0.4686 C.3     1  LIG11      -0.0243
     15 C          -7.6253    5.1934    0.3071 C.3     1  LIG11      -0.0235
     16 C          -6.4559    5.9183   -1.7998 C.3     1  LIG11      -0.0461
     17 C          -7.0664    3.1603   -4.5905 C.2     1  LIG11      -0.0596
     18 C          -6.4681    2.7212   -5.9456 C.3     1  LIG11      -0.0080
     19 C          -7.2071    6.3974   -0.5583 C.3     1  LIG11      -0.0483
     20 C          -5.8275    5.3838   -4.8463 C.3     1  LIG11      -0.0392
     21 C          -8.7928    2.9086   -2.7367 C.3     1  LIG11      -0.0306
     22 C          -6.1832    3.9143   -6.8906 C.3     1  LIG11       0.0167
     23 C          -7.9860    5.5552    1.7869 C.3     1  LIG11       0.0267
     24 C          -8.8598    3.0044    0.4016 C.3     1  LIG11      -0.0404
     25 C          -5.2200    4.8741   -6.1534 C.3     1  LIG11      -0.0408
     26 C          -8.3709    5.8184   -3.4133 C.3     1  LIG11      -0.0584
     27 C          -8.1657    2.5862   -4.0602 C.2     1  LIG11      -0.0835
     28 C          -4.9721    3.6240   -3.2684 C.3     1  LIG11       0.1025
     29 C         -10.0261    4.9453   -0.6794 C.3     1  LIG11      -0.0590
     30 C          -7.1577    1.5307   -6.6553 C.3     1  LIG11      -0.0405
     31 C          -5.4791    3.4312   -8.1835 C.3     1  LIG11      -0.0412
     32 C          -9.2901    3.2859    1.8356 C.3     1  LIG11       0.0069
     33 C          -6.4298    1.0634   -7.9375 C.3     1  LIG11      -0.0343
     34 C          -8.3759    4.2664    2.5322 C.2     1  LIG11       0.1392
     35 C          -6.1947    2.2667   -8.8699 C.3     1  LIG11      -0.0470
     36 C          -9.1147    6.5819    1.9538 C.3     1  LIG11      -0.0528
     37 C          -6.7348    6.1404    2.4945 C.3     1  LIG11      -0.0528
     38 C          -7.4074    4.7458   -7.4034 C.2     1  LIG11       0.0485
     39 C          -7.3125    0.0306   -8.6642 C.3     1  LIG11      -0.0598
     40 C          -5.0951    0.3704   -7.5907 C.3     1  LIG11      -0.0598
     41 C          -5.0830    1.3215   -2.6436 C.2     1  LIG11       0.3320
     42 C          -5.5021    0.4982   -1.4865 C.2     1  LIG11       0.0231
     43 C          -6.0389   -0.7234   -1.6537 C.2     1  LIG11      -0.0460
     44 C          -6.5365   -1.6253   -0.5791 C.ar    1  LIG11      -0.0001
     45 C          -7.0466   -2.9247   -0.8299 C.ar    1  LIG11       0.0411
     46 C          -6.6414   -1.1325    0.7431 C.ar    1  LIG11      -0.0113
     47 C          -7.6813   -3.6423    0.2054 C.ar    1  LIG11      -0.0364
     48 C          -7.2348   -1.8830    1.7584 C.ar    1  LIG11       0.1175
     49 C          -7.7624   -3.1320    1.4972 C.ar    1  LIG11      -0.0184
     50 C          -5.9319   -3.7286   -2.9077 C.2     1  LIG11       0.2411
     51 C          -6.2244   -4.6935   -4.0052 C.2     1  LIG11       0.0021
     52 C          -5.2630   -5.2707   -4.7397 C.2     1  LIG11      -0.0344
     53 C          -5.6242   -6.3411   -5.7630 C.2     1  LIG11       0.0647
     54 H          -6.9094   -0.5322    3.0694 H       1  LIG11       0.2921
     55 H          -7.7009   -4.3546   -2.1738 H       1  LIG11       0.1551
     56 H          -7.1309    3.2141   -1.4827 H       1  LIG11       0.0315
     57 H          -6.7163    4.5750    0.4033 H       1  LIG11       0.0315
     58 H          -5.5463    5.4264   -1.4428 H       1  LIG11       0.0271
     59 H          -6.1229    6.7957   -2.3675 H       1  LIG11       0.0271
     60 H          -5.4846    2.3188   -5.6751 H       1  LIG11       0.0355
     61 H          -8.0628    7.0175   -0.8393 H       1  LIG11       0.0269
     62 H          -6.5275    7.0572   -0.0115 H       1  LIG11       0.0269
     63 H          -6.6526    6.0361   -5.1371 H       1  LIG11       0.0275
     64 H          -5.0943    6.0371   -4.3569 H       1  LIG11       0.0275
     65 H          -9.7754    3.3361   -2.9521 H       1  LIG11       0.0310
     66 H          -8.9675    1.9621   -2.2125 H       1  LIG11       0.0310
     67 H          -9.6080    2.3492   -0.0600 H       1  LIG11       0.0275
     68 H          -7.9248    2.4288    0.4394 H       1  LIG11       0.0275
     69 H          -4.9553    5.7362   -6.7787 H       1  LIG11       0.0275
     70 H          -4.2672    4.3714   -5.9466 H       1  LIG11       0.0275
     71 H          -9.1897    6.0909   -2.7541 H       1  LIG11       0.0235
     72 H          -7.9743    6.7741   -3.7729 H       1  LIG11       0.0235
     73 H          -8.8190    5.3053   -4.2695 H       1  LIG11       0.0235
     74 H          -8.6971    1.8245   -4.6251 H       1  LIG11       0.0572
     75 H          -4.3502    4.3977   -2.8057 H       1  LIG11       0.0706
     76 H          -4.3382    3.2203   -4.0647 H       1  LIG11       0.0706
     77 H          -9.9602    6.0161   -0.8772 H       1  LIG11       0.0235
     78 H         -10.5914    4.4896   -1.4942 H       1  LIG11       0.0235
     79 H         -10.6796    4.8462    0.1892 H       1  LIG11       0.0235
     80 H          -7.2181    0.6802   -5.9620 H       1  LIG11       0.0276
     81 H          -8.1926    1.7918   -6.9051 H       1  LIG11       0.0276
     82 H          -5.3779    4.2502   -8.9078 H       1  LIG11       0.0274
     83 H          -4.4511    3.1255   -7.9512 H       1  LIG11       0.0274
     84 H         -10.3134    3.6656    1.8960 H       1  LIG11       0.0342
     85 H          -9.2696    2.3439    2.3968 H       1  LIG11       0.0342
     86 H          -7.1554    2.6228   -9.2634 H       1  LIG11       0.0271
     87 H          -5.6071    1.9555   -9.7432 H       1  LIG11       0.0271
     88 H         -10.0954    6.1883    1.6852 H       1  LIG11       0.0239
     89 H          -9.2028    6.8914    3.0030 H       1  LIG11       0.0239
     90 H          -8.9320    7.4860    1.3646 H       1  LIG11       0.0239
     91 H          -5.8734    5.4696    2.3976 H       1  LIG11       0.0239
     92 H          -6.4536    7.1192    2.0944 H       1  LIG11       0.0239
     93 H          -6.9091    6.2853    3.5676 H       1  LIG11       0.0239
     94 H          -8.2818    0.4595   -8.9414 H       1  LIG11       0.0235
     95 H          -6.8312   -0.3242   -9.5826 H       1  LIG11       0.0235
     96 H          -7.5039   -0.8418   -8.0289 H       1  LIG11       0.0235
     97 H          -4.3911    1.0341   -7.0814 H       1  LIG11       0.0235
     98 H          -5.2601   -0.4923   -6.9350 H       1  LIG11       0.0235
     99 H          -4.5968    0.0060   -8.4965 H       1  LIG11       0.0235
    100 H          -5.3610    0.9702   -0.5266 H       1  LIG11       0.0689
    101 H          -6.1548   -1.0904   -2.6726 H       1  LIG11       0.0626
    102 H          -6.2808   -0.1414    0.9911 H       1  LIG11       0.0660
    103 H          -8.0826   -4.6362    0.0190 H       1  LIG11       0.0637
    104 H          -8.2273   -3.7101    2.2893 H       1  LIG11       0.0655
    105 H          -7.2615   -4.9598   -4.1811 H       1  LIG11       0.0670
    106 H          -4.2163   -5.0220   -4.6034 H       1  LIG11       0.0637
@<TRIPOS>BOND
     1     1    41    1
     2     1    28    1
     3     2    34    2
     4     3    38   ar
     5     4    38   ar
     6     5    41    2
     7     6    48    1
     8     7    50    2
     9     8    53   ar
    10     9    53   ar
    11    10    45    1
    12    10    50   am
    13    11    16    1
    14    11    12    1
    15    11    26    1
    16    11    13    1
    17    12    14    1
    18    13    20    1
    19    13    17    1
    20    13    28    1
    21    14    15    1
    22    14    24    1
    23    14    29    1
    24    15    19    1
    25    15    23    1
    26    16    19    1
    27    17    18    1
    28    17    27    2
    29    18    30    1
    30    18    22    1
    31    20    25    1
    32    21    27    1
    33    21    12    1
    34    22    31    1
    35    22    25    1
    36    22    38    1
    37    23    34    1
    38    23    37    1
    39    23    36    1
    40    24    32    1
    41    30    33    1
    42    31    35    1
    43    32    34    1
    44    33    35    1
    45    33    40    1
    46    33    39    1
    47    41    42    1
    48    42    43    2
    49    43    44    1
    50    44    46   ar
    51    44    45   ar
    52    45    47   ar
    53    46    48   ar
    54    47    49   ar
    55    48    49   ar
    56    50    51    1
    57    51    52    2
    58    52    53    1
    59     6    54    1
    60    10    55    1
    61    12    56    1
    62    15    57    1
    63    16    58    1
    64    16    59    1
    65    18    60    1
    66    19    61    1
    67    19    62    1
    68    20    63    1
    69    20    64    1
    70    21    65    1
    71    21    66    1
    72    24    67    1
    73    24    68    1
    74    25    69    1
    75    25    70    1
    76    26    71    1
    77    26    72    1
    78    26    73    1
    79    27    74    1
    80    28    75    1
    81    28    76    1
    82    29    77    1
    83    29    78    1
    84    29    79    1
    85    30    80    1
    86    30    81    1
    87    31    82    1
    88    31    83    1
    89    32    84    1
    90    32    85    1
    91    35    86    1
    92    35    87    1
    93    36    88    1
    94    36    89    1
    95    36    90    1
    96    37    91    1
    97    37    92    1
    98    37    93    1
    99    39    94    1
   100    39    95    1
   101    39    96    1
   102    40    97    1
   103    40    98    1
   104    40    99    1
   105    42   100    1
   106    43   101    1
   107    46   102    1
   108    47   103    1
   109    49   104    1
   110    51   105    1
   111    52   106    1
@<TRIPOS>MOLECULE
../1EDN/PCA2_17-21.pdb
 47 48 0 0 0
SMALL
GASTEIGER

@<TRIPOS>ATOM
      1  N         -4.4680    0.3970   -1.5420 N.3    17  LEU17      -0.1231
      2  CA        -5.5730   -0.5090   -1.8150 C.3    17  LEU17       0.1693
      3  CB        -5.9860   -1.2020   -0.4580 C.3    17  LEU17       0.0284
      4  CG        -7.1280   -2.2100   -0.5390 C.3    17  LEU17       0.0019
      5  CD1       -6.7120   -3.3620   -1.4700 C.3    17  LEU17       0.0001
      6  CD2       -7.4980   -2.5610    0.9130 C.3    17  LEU17       0.0001
      7  C         -6.7000    0.2280   -2.5610 C.2    17  LEU17       0.2592
      8  O         -7.1860   -0.2780   -3.5510 O.2    17  LEU17      -0.2718
      9  N         -7.2650    1.2690   -1.9650 N.am   18  ASP18      -0.1960
     10  CA        -8.5260    1.8930   -2.2590 C.3    18  ASP18       0.1840
     11  CB        -9.6810    1.0560   -1.6740 C.3    18  ASP18       0.1450
     12  CG       -11.0010    1.6360   -2.1090 C.2    18  ASP18       0.3671
     13  OD1      -11.5960    2.3310   -1.2790 O.co2  18  ASP18      -0.2456
     14  OD2      -11.5460    1.2700   -3.1630 O.co2  18  ASP18      -0.2456
     15  C         -8.5570    3.3770   -1.7380 C.2    18  ASP18       0.2622
     16  O         -8.6960    4.2620   -2.5680 O.2    18  ASP18      -0.2715
     17  N         -8.4180    3.5730   -0.4160 N.am   19  ILE19      -0.1963
     18  CA        -8.3980    4.9040    0.1930 C.3    19  ILE19       0.1727
     19  CB        -8.4260    4.8620    1.7600 C.3    19  ILE19       0.0290
     20  CG2       -7.7310    6.0060    2.5190 C.3    19  ILE19       0.0023
     21  CG1       -9.9240    4.5740    2.2500 C.3    19  ILE19       0.0022
     22  CD1      -10.9740    5.6950    2.0110 C.3    19  ILE19       0.0001
     23  C         -7.1570    5.7010   -0.3260 C.2    19  ILE19       0.2616
     24  O         -7.3050    6.7970   -0.9200 O.2    19  ILE19      -0.2715
     25  N         -5.9900    5.0720   -0.2260 N.am   20  ILE20      -0.1963
     26  CA        -4.7520    5.3490   -0.9430 C.3    20  ILE20       0.1727
     27  CB        -3.5230    4.9310   -0.1080 C.3    20  ILE20       0.0290
     28  CG2       -2.1210    5.5060   -0.7390 C.3    20  ILE20       0.0023
     29  CG1       -3.5940    5.4760    1.3470 C.3    20  ILE20       0.0022
     30  CD1       -2.3570    5.1940    2.2260 C.3    20  ILE20       0.0001
     31  C         -4.7590    4.7050   -2.3650 C.2    20  ILE20       0.2617
     32  O         -4.2060    3.6200   -2.5900 O.2    20  ILE20      -0.2715
     33  N         -5.4060    5.3330   -3.3880 N.am   21  TRP21      -0.1938
     34  CA        -5.3950    4.7680   -4.7850 C.3    21  TRP21       0.2021
     35  CB        -6.6210    3.8650   -5.0310 C.3    21  TRP21       0.0612
     36  CG        -6.7890    3.3770   -6.4480 C.ar   21  TRP21       0.0007
     37  CD1       -7.1340    4.1960   -7.4760 C.ar   21  TRP21       0.0946
     38  NE1       -7.1740    3.4060   -8.6160 N.ar   21  TRP21      -0.2442
     39  CE2       -6.9360    2.0750   -8.3350 C.ar   21  TRP21       0.0810
     40  CZ2       -6.8300    1.0510   -9.2060 C.ar   21  TRP21       0.0191
     41  CH2       -6.3330   -0.2010   -8.7710 C.ar   21  TRP21       0.0015
     42  CZ3       -5.9560   -0.2520   -7.3640 C.ar   21  TRP21       0.0001
     43  CE3       -6.0150    0.8940   -6.5860 C.ar   21  TRP21       0.0012
     44  CD2       -6.6320    2.0560   -6.9830 C.ar   21  TRP21       0.0152
     45  C         -5.1960    5.8550   -5.8260 C.2    21  TRP21       0.3845
     46  O         -4.1840    5.6720   -6.5070 O.co2  21  TRP21      -0.2437
     47  OXT       -5.9640    6.8330   -6.0170 O.co2  21  TRP21      -0.2437
@<TRIPOS>BOND
     1    40    41   ar
     2    40    39   ar
     3    41    42   ar
     4    38    39   ar
     5    38    37   ar
     6    39    44   ar
     7    37    36   ar
     8    42    43   ar
     9    44    43   ar
    10    44    36   ar
    11    46    45   ar
    12    36    35    1
    13    47    45   ar
    14    45    34    1
    15    35    34    1
    16    34    33    1
    17     8     7    2
    18    33    31   am
    19    14    12   ar
    20    32    31    2
    21    16    15    2
    22     7     9   am
    23     7     2    1
    24    31    26    1
    25    10     9    1
    26    10    15    1
    27    10    11    1
    28    12    11    1
    29    12    13   ar
    30     2     1    1
    31     2     3    1
    32    15    17   am
    33     5     4    1
    34    26    25    1
    35    26    27    1
    36    24    23    2
    37    28    27    1
    38     4     3    1
    39     4     6    1
    40    17    18    1
    41    23    25   am
    42    23    18    1
    43    27    29    1
    44    18    19    1
    45    29    30    1
    46    19    21    1
    47    19    20    1
    48    22    21    1
