@<TRIPOS>MOLECULE
9911482
 51 53 0 0 0
SMALL
GASTEIGER

@<TRIPOS>ATOM
      1 S          -7.0059    6.1520   -0.9276 S.O2    1  LIG11       0.0758
      2 S          -3.5933    3.9107   -2.2595 S.2     1  LIG11      -0.0902
      3 O          -7.3643    2.7900   -0.0507 O.2     1  LIG11      -0.3377
      4 O          -7.6012    6.5287   -2.1827 O.2     1  LIG11      -0.1499
      5 O          -6.5764    7.1707    0.0124 O.2     1  LIG11      -0.1499
      6 O          -7.1737    4.4804   -3.7243 O.2     1  LIG11      -0.2692
      7 O          -7.3946    6.3037   -6.9371 O.2     1  LIG11      -0.2923
      8 N          -5.2812    3.5740   -4.6048 N.am    1  LIG11      -0.2802
      9 N          -8.0239    5.1384   -0.0207 N.pl3   1  LIG11      -0.1831
     10 N          -7.6782    1.6316   -0.7326 N.ar    1  LIG11      -0.0810
     11 C          -5.8586    3.2054   -5.8402 C.ar    1  LIG11       0.0471
     12 C          -5.5122    5.3121   -1.2827 C.ar    1  LIG11       0.1277
     13 C          -5.7933    1.8496   -6.2329 C.ar    1  LIG11      -0.0283
     14 C          -6.4764    4.1450   -6.6970 C.ar    1  LIG11       0.0388
     15 C          -5.1993    4.5499   -2.4028 C.ar    1  LIG11       0.1007
     16 C          -7.0467    2.3684   -8.2718 C.ar    1  LIG11      -0.0494
     17 C          -6.3941    1.4526   -7.4449 C.ar    1  LIG11      -0.0541
     18 C          -7.0741    3.7117   -7.8942 C.ar    1  LIG11      -0.0466
     19 C          -5.9811    4.2345   -3.6013 C.2     1  LIG11       0.2568
     20 C          -8.1093    3.8195   -0.5319 C.ar    1  LIG11       0.2399
     21 C          -4.4313    5.3480   -0.3319 C.ar    1  LIG11      -0.0273
     22 C          -8.9869    3.3505   -1.4811 C.ar    1  LIG11       0.0350
     23 C          -5.2327    0.7445   -5.3737 C.3     1  LIG11      -0.0379
     24 C          -6.4541    5.6290   -6.5173 C.2     1  LIG11       0.1619
     25 C          -8.6629    1.9675   -1.5756 C.ar    1  LIG11       0.0854
     26 C          -3.3344    4.6357   -0.7461 C.ar    1  LIG11      -0.0217
     27 C          -7.6746    1.9401   -9.5649 C.3     1  LIG11      -0.0397
     28 C         -10.0370    4.0820   -2.2264 C.3     1  LIG11      -0.0330
     29 C          -9.2856    0.9404   -2.4432 C.3     1  LIG11      -0.0188
     30 C          -5.2288    6.2950   -5.9442 C.3     1  LIG11      -0.0013
     31 H          -4.4861    3.0416   -4.2719 H       1  LIG11       0.1552
     32 H          -7.6338    5.1370    0.9223 H       1  LIG11       0.1768
     33 H          -6.3709    0.4014   -7.7319 H       1  LIG11       0.0623
     34 H          -7.5487    4.4412   -8.5515 H       1  LIG11       0.0628
     35 H          -4.4571    5.8890    0.6085 H       1  LIG11       0.0643
     36 H          -4.6382    1.0975   -4.5301 H       1  LIG11       0.0278
     37 H          -4.5803    0.0987   -5.9715 H       1  LIG11       0.0278
     38 H          -6.0551    0.1425   -4.9718 H       1  LIG11       0.0278
     39 H          -2.3926    4.5106   -0.2276 H       1  LIG11       0.0694
     40 H          -7.7509    0.8499   -9.6305 H       1  LIG11       0.0278
     41 H          -7.0743    2.2942  -10.4088 H       1  LIG11       0.0278
     42 H          -8.6879    2.3465   -9.6491 H       1  LIG11       0.0278
     43 H         -10.0856    5.1363   -1.9391 H       1  LIG11       0.0280
     44 H         -11.0183    3.6388   -2.0257 H       1  LIG11       0.0280
     45 H          -9.8543    4.0297   -3.3039 H       1  LIG11       0.0280
     46 H          -8.7774   -0.0255   -2.3537 H       1  LIG11       0.0294
     47 H          -9.2435    1.2476   -3.4928 H       1  LIG11       0.0294
     48 H         -10.3349    0.7960   -2.1660 H       1  LIG11       0.0294
     49 H          -5.0022    7.1828   -6.5433 H       1  LIG11       0.0309
     50 H          -4.3500    5.6479   -5.9958 H       1  LIG11       0.0309
     51 H          -5.4172    6.6033   -4.9140 H       1  LIG11       0.0309
@<TRIPOS>BOND
     1     1     4    2
     2     1     5    2
     3     1     9    1
     4     1    12    1
     5     2    15   ar
     6     2    26   ar
     7     3    10   ar
     8     3    20   ar
     9     6    19    2
    10     7    24    2
    11     8    11    1
    12     8    19   am
    13     9    20    1
    14    10    25   ar
    15    11    13   ar
    16    11    14   ar
    17    12    15   ar
    18    12    21   ar
    19    13    17   ar
    20    13    23    1
    21    14    18   ar
    22    14    24    1
    23    15    19    1
    24    16    17   ar
    25    16    18   ar
    26    16    27    1
    27    20    22   ar
    28    21    26   ar
    29    22    25   ar
    30    22    28    1
    31    24    30    1
    32    25    29    1
    33     8    31    1
    34     9    32    1
    35    17    33    1
    36    18    34    1
    37    21    35    1
    38    23    36    1
    39    23    37    1
    40    23    38    1
    41    26    39    1
    42    27    40    1
    43    27    41    1
    44    27    42    1
    45    28    43    1
    46    28    44    1
    47    28    45    1
    48    29    46    1
    49    29    47    1
    50    29    48    1
    51    30    49    1
    52    30    50    1
    53    30    51    1
@<TRIPOS>MOLECULE
../1EDN/PCA2_17-21.pdb
 47 48 0 0 0
SMALL
GASTEIGER

@<TRIPOS>ATOM
      1  N         -4.4680    0.3970   -1.5420 N.3    17  LEU17      -0.1231
      2  CA        -5.5730   -0.5090   -1.8150 C.3    17  LEU17       0.1693
      3  CB        -5.9860   -1.2020   -0.4580 C.3    17  LEU17       0.0284
      4  CG        -7.1280   -2.2100   -0.5390 C.3    17  LEU17       0.0019
      5  CD1       -6.7120   -3.3620   -1.4700 C.3    17  LEU17       0.0001
      6  CD2       -7.4980   -2.5610    0.9130 C.3    17  LEU17       0.0001
      7  C         -6.7000    0.2280   -2.5610 C.2    17  LEU17       0.2592
      8  O         -7.1860   -0.2780   -3.5510 O.2    17  LEU17      -0.2718
      9  N         -7.2650    1.2690   -1.9650 N.am   18  ASP18      -0.1960
     10  CA        -8.5260    1.8930   -2.2590 C.3    18  ASP18       0.1840
     11  CB        -9.6810    1.0560   -1.6740 C.3    18  ASP18       0.1450
     12  CG       -11.0010    1.6360   -2.1090 C.2    18  ASP18       0.3671
     13  OD1      -11.5960    2.3310   -1.2790 O.co2  18  ASP18      -0.2456
     14  OD2      -11.5460    1.2700   -3.1630 O.co2  18  ASP18      -0.2456
     15  C         -8.5570    3.3770   -1.7380 C.2    18  ASP18       0.2622
     16  O         -8.6960    4.2620   -2.5680 O.2    18  ASP18      -0.2715
     17  N         -8.4180    3.5730   -0.4160 N.am   19  ILE19      -0.1963
     18  CA        -8.3980    4.9040    0.1930 C.3    19  ILE19       0.1727
     19  CB        -8.4260    4.8620    1.7600 C.3    19  ILE19       0.0290
     20  CG2       -7.7310    6.0060    2.5190 C.3    19  ILE19       0.0023
     21  CG1       -9.9240    4.5740    2.2500 C.3    19  ILE19       0.0022
     22  CD1      -10.9740    5.6950    2.0110 C.3    19  ILE19       0.0001
     23  C         -7.1570    5.7010   -0.3260 C.2    19  ILE19       0.2616
     24  O         -7.3050    6.7970   -0.9200 O.2    19  ILE19      -0.2715
     25  N         -5.9900    5.0720   -0.2260 N.am   20  ILE20      -0.1963
     26  CA        -4.7520    5.3490   -0.9430 C.3    20  ILE20       0.1727
     27  CB        -3.5230    4.9310   -0.1080 C.3    20  ILE20       0.0290
     28  CG2       -2.1210    5.5060   -0.7390 C.3    20  ILE20       0.0023
     29  CG1       -3.5940    5.4760    1.3470 C.3    20  ILE20       0.0022
     30  CD1       -2.3570    5.1940    2.2260 C.3    20  ILE20       0.0001
     31  C         -4.7590    4.7050   -2.3650 C.2    20  ILE20       0.2617
     32  O         -4.2060    3.6200   -2.5900 O.2    20  ILE20      -0.2715
     33  N         -5.4060    5.3330   -3.3880 N.am   21  TRP21      -0.1938
     34  CA        -5.3950    4.7680   -4.7850 C.3    21  TRP21       0.2021
     35  CB        -6.6210    3.8650   -5.0310 C.3    21  TRP21       0.0612
     36  CG        -6.7890    3.3770   -6.4480 C.ar   21  TRP21       0.0007
     37  CD1       -7.1340    4.1960   -7.4760 C.ar   21  TRP21       0.0946
     38  NE1       -7.1740    3.4060   -8.6160 N.ar   21  TRP21      -0.2442
     39  CE2       -6.9360    2.0750   -8.3350 C.ar   21  TRP21       0.0810
     40  CZ2       -6.8300    1.0510   -9.2060 C.ar   21  TRP21       0.0191
     41  CH2       -6.3330   -0.2010   -8.7710 C.ar   21  TRP21       0.0015
     42  CZ3       -5.9560   -0.2520   -7.3640 C.ar   21  TRP21       0.0001
     43  CE3       -6.0150    0.8940   -6.5860 C.ar   21  TRP21       0.0012
     44  CD2       -6.6320    2.0560   -6.9830 C.ar   21  TRP21       0.0152
     45  C         -5.1960    5.8550   -5.8260 C.2    21  TRP21       0.3845
     46  O         -4.1840    5.6720   -6.5070 O.co2  21  TRP21      -0.2437
     47  OXT       -5.9640    6.8330   -6.0170 O.co2  21  TRP21      -0.2437
@<TRIPOS>BOND
     1    40    41   ar
     2    40    39   ar
     3    41    42   ar
     4    38    39   ar
     5    38    37   ar
     6    39    44   ar
     7    37    36   ar
     8    42    43   ar
     9    44    43   ar
    10    44    36   ar
    11    46    45   ar
    12    36    35    1
    13    47    45   ar
    14    45    34    1
    15    35    34    1
    16    34    33    1
    17     8     7    2
    18    33    31   am
    19    14    12   ar
    20    32    31    2
    21    16    15    2
    22     7     9   am
    23     7     2    1
    24    31    26    1
    25    10     9    1
    26    10    15    1
    27    10    11    1
    28    12    11    1
    29    12    13   ar
    30     2     1    1
    31     2     3    1
    32    15    17   am
    33     5     4    1
    34    26    25    1
    35    26    27    1
    36    24    23    2
    37    28    27    1
    38     4     3    1
    39     4     6    1
    40    17    18    1
    41    23    25   am
    42    23    18    1
    43    27    29    1
    44    18    19    1
    45    29    30    1
    46    19    21    1
    47    19    20    1
    48    22    21    1
