@<TRIPOS>MOLECULE
9843631
 45 48 0 0 0
SMALL
GASTEIGER

@<TRIPOS>ATOM
      1 S          -7.5942    4.8339   -0.8538 S.O2    1  LIG11       0.0752
      2 O          -8.7016    1.6878   -2.1277 O.2     1  LIG11      -0.3377
      3 O          -8.1883    5.5543    0.2583 O.2     1  LIG11      -0.1499
      4 O          -8.0373    5.0765   -2.2041 O.2     1  LIG11      -0.1499
      5 O          -7.2424    2.4039   -7.4677 O.2     1  LIG11      -0.4436
      6 N          -7.6745    3.1710   -0.4858 N.pl3   1  LIG11      -0.1831
      7 N          -9.9466    1.1908   -2.4511 N.ar    1  LIG11      -0.0810
      8 N          -6.2303    4.1964   -8.3952 N.ar    1  LIG11      -0.2175
      9 C          -5.8166    5.0698   -0.7685 C.ar    1  LIG11       0.1162
     10 C          -4.9464    4.8747   -1.8653 C.ar    1  LIG11       0.0087
     11 C          -5.3402    4.5001   -3.2395 C.ar    1  LIG11      -0.0160
     12 C          -5.3146    5.4714    0.4862 C.ar    1  LIG11      -0.0345
     13 C          -8.8048    2.5363   -1.0708 C.ar    1  LIG11       0.2399
     14 C          -3.5669    5.0762   -1.6271 C.ar    1  LIG11      -0.0521
     15 C         -10.1075    2.5579   -0.6244 C.ar    1  LIG11       0.0350
     16 C          -5.9330    3.2684   -3.5436 C.ar    1  LIG11      -0.0533
     17 C          -5.0691    5.3685   -4.3114 C.ar    1  LIG11      -0.0533
     18 C          -3.9500    5.6681    0.6779 C.ar    1  LIG11      -0.0599
     19 C          -3.0743    5.4653   -0.3785 C.ar    1  LIG11      -0.0611
     20 C          -6.0742    3.8320   -5.9110 C.ar    1  LIG11       0.0369
     21 C         -10.7863    1.7134   -1.5502 C.ar    1  LIG11       0.0854
     22 C          -6.3225    2.9507   -4.8522 C.ar    1  LIG11      -0.0489
     23 C          -5.4188    5.0351   -5.6255 C.ar    1  LIG11      -0.0489
     24 C         -10.6847    3.2284    0.5620 C.3     1  LIG11      -0.0330
     25 C         -12.2218    1.3461   -1.5781 C.3     1  LIG11      -0.0188
     26 C          -6.4785    3.5292   -7.2818 C.ar    1  LIG11       0.2271
     27 C          -7.4946    2.3866   -8.8049 C.ar    1  LIG11       0.1125
     28 C          -6.8764    3.4737   -9.3660 C.ar    1  LIG11       0.0663
     29 H          -6.8128    2.7150   -0.7775 H       1  LIG11       0.1768
     30 H          -5.9867    5.6340    1.3280 H       1  LIG11       0.0637
     31 H          -2.8509    4.9291   -2.4369 H       1  LIG11       0.0624
     32 H          -6.1136    2.5257   -2.7750 H       1  LIG11       0.0624
     33 H          -4.5800    6.3239   -4.1325 H       1  LIG11       0.0624
     34 H          -3.5744    5.9800    1.6489 H       1  LIG11       0.0618
     35 H          -2.0065    5.6160   -0.2392 H       1  LIG11       0.0618
     36 H          -6.8284    2.0037   -5.0309 H       1  LIG11       0.0625
     37 H          -5.1902    5.7325   -6.4305 H       1  LIG11       0.0625
     38 H          -9.9194    3.7071    1.1788 H       1  LIG11       0.0280
     39 H         -11.1965    2.4945    1.1950 H       1  LIG11       0.0280
     40 H         -11.4128    3.9878    0.2620 H       1  LIG11       0.0280
     41 H         -12.4900    0.8424   -2.5131 H       1  LIG11       0.0294
     42 H         -12.8505    2.2370   -1.4855 H       1  LIG11       0.0294
     43 H         -12.4549    0.6699   -0.7498 H       1  LIG11       0.0294
     44 H          -8.1019    1.5729   -9.1721 H       1  LIG11       0.1046
     45 H          -6.8642    3.7748  -10.4040 H       1  LIG11       0.0862
@<TRIPOS>BOND
     1     1     3    2
     2     1     4    2
     3     1     6    1
     4     1     9    1
     5     2     7   ar
     6     2    13   ar
     7     5    26   ar
     8     5    27   ar
     9     6    13    1
    10     7    21   ar
    11     8    26   ar
    12     8    28   ar
    13     9    10   ar
    14     9    12   ar
    15    10    11    1
    16    10    14   ar
    17    11    16   ar
    18    11    17   ar
    19    12    18   ar
    20    13    15   ar
    21    14    19   ar
    22    15    21   ar
    23    15    24    1
    24    16    22   ar
    25    17    23   ar
    26    18    19   ar
    27    20    22   ar
    28    20    23   ar
    29    20    26    1
    30    21    25    1
    31    27    28   ar
    32     6    29    1
    33    12    30    1
    34    14    31    1
    35    16    32    1
    36    17    33    1
    37    18    34    1
    38    19    35    1
    39    22    36    1
    40    23    37    1
    41    24    38    1
    42    24    39    1
    43    24    40    1
    44    25    41    1
    45    25    42    1
    46    25    43    1
    47    27    44    1
    48    28    45    1
@<TRIPOS>MOLECULE
../1EDN/PCA2_17-21.pdb
 47 48 0 0 0
SMALL
GASTEIGER

@<TRIPOS>ATOM
      1  N         -4.4680    0.3970   -1.5420 N.3    17  LEU17      -0.1231
      2  CA        -5.5730   -0.5090   -1.8150 C.3    17  LEU17       0.1693
      3  CB        -5.9860   -1.2020   -0.4580 C.3    17  LEU17       0.0284
      4  CG        -7.1280   -2.2100   -0.5390 C.3    17  LEU17       0.0019
      5  CD1       -6.7120   -3.3620   -1.4700 C.3    17  LEU17       0.0001
      6  CD2       -7.4980   -2.5610    0.9130 C.3    17  LEU17       0.0001
      7  C         -6.7000    0.2280   -2.5610 C.2    17  LEU17       0.2592
      8  O         -7.1860   -0.2780   -3.5510 O.2    17  LEU17      -0.2718
      9  N         -7.2650    1.2690   -1.9650 N.am   18  ASP18      -0.1960
     10  CA        -8.5260    1.8930   -2.2590 C.3    18  ASP18       0.1840
     11  CB        -9.6810    1.0560   -1.6740 C.3    18  ASP18       0.1450
     12  CG       -11.0010    1.6360   -2.1090 C.2    18  ASP18       0.3671
     13  OD1      -11.5960    2.3310   -1.2790 O.co2  18  ASP18      -0.2456
     14  OD2      -11.5460    1.2700   -3.1630 O.co2  18  ASP18      -0.2456
     15  C         -8.5570    3.3770   -1.7380 C.2    18  ASP18       0.2622
     16  O         -8.6960    4.2620   -2.5680 O.2    18  ASP18      -0.2715
     17  N         -8.4180    3.5730   -0.4160 N.am   19  ILE19      -0.1963
     18  CA        -8.3980    4.9040    0.1930 C.3    19  ILE19       0.1727
     19  CB        -8.4260    4.8620    1.7600 C.3    19  ILE19       0.0290
     20  CG2       -7.7310    6.0060    2.5190 C.3    19  ILE19       0.0023
     21  CG1       -9.9240    4.5740    2.2500 C.3    19  ILE19       0.0022
     22  CD1      -10.9740    5.6950    2.0110 C.3    19  ILE19       0.0001
     23  C         -7.1570    5.7010   -0.3260 C.2    19  ILE19       0.2616
     24  O         -7.3050    6.7970   -0.9200 O.2    19  ILE19      -0.2715
     25  N         -5.9900    5.0720   -0.2260 N.am   20  ILE20      -0.1963
     26  CA        -4.7520    5.3490   -0.9430 C.3    20  ILE20       0.1727
     27  CB        -3.5230    4.9310   -0.1080 C.3    20  ILE20       0.0290
     28  CG2       -2.1210    5.5060   -0.7390 C.3    20  ILE20       0.0023
     29  CG1       -3.5940    5.4760    1.3470 C.3    20  ILE20       0.0022
     30  CD1       -2.3570    5.1940    2.2260 C.3    20  ILE20       0.0001
     31  C         -4.7590    4.7050   -2.3650 C.2    20  ILE20       0.2617
     32  O         -4.2060    3.6200   -2.5900 O.2    20  ILE20      -0.2715
     33  N         -5.4060    5.3330   -3.3880 N.am   21  TRP21      -0.1938
     34  CA        -5.3950    4.7680   -4.7850 C.3    21  TRP21       0.2021
     35  CB        -6.6210    3.8650   -5.0310 C.3    21  TRP21       0.0612
     36  CG        -6.7890    3.3770   -6.4480 C.ar   21  TRP21       0.0007
     37  CD1       -7.1340    4.1960   -7.4760 C.ar   21  TRP21       0.0946
     38  NE1       -7.1740    3.4060   -8.6160 N.ar   21  TRP21      -0.2442
     39  CE2       -6.9360    2.0750   -8.3350 C.ar   21  TRP21       0.0810
     40  CZ2       -6.8300    1.0510   -9.2060 C.ar   21  TRP21       0.0191
     41  CH2       -6.3330   -0.2010   -8.7710 C.ar   21  TRP21       0.0015
     42  CZ3       -5.9560   -0.2520   -7.3640 C.ar   21  TRP21       0.0001
     43  CE3       -6.0150    0.8940   -6.5860 C.ar   21  TRP21       0.0012
     44  CD2       -6.6320    2.0560   -6.9830 C.ar   21  TRP21       0.0152
     45  C         -5.1960    5.8550   -5.8260 C.2    21  TRP21       0.3845
     46  O         -4.1840    5.6720   -6.5070 O.co2  21  TRP21      -0.2437
     47  OXT       -5.9640    6.8330   -6.0170 O.co2  21  TRP21      -0.2437
@<TRIPOS>BOND
     1    40    41   ar
     2    40    39   ar
     3    41    42   ar
     4    38    39   ar
     5    38    37   ar
     6    39    44   ar
     7    37    36   ar
     8    42    43   ar
     9    44    43   ar
    10    44    36   ar
    11    46    45   ar
    12    36    35    1
    13    47    45   ar
    14    45    34    1
    15    35    34    1
    16    34    33    1
    17     8     7    2
    18    33    31   am
    19    14    12   ar
    20    32    31    2
    21    16    15    2
    22     7     9   am
    23     7     2    1
    24    31    26    1
    25    10     9    1
    26    10    15    1
    27    10    11    1
    28    12    11    1
    29    12    13   ar
    30     2     1    1
    31     2     3    1
    32    15    17   am
    33     5     4    1
    34    26    25    1
    35    26    27    1
    36    24    23    2
    37    28    27    1
    38     4     3    1
    39     4     6    1
    40    17    18    1
    41    23    25   am
    42    23    18    1
    43    27    29    1
    44    18    19    1
    45    29    30    1
    46    19    21    1
    47    19    20    1
    48    22    21    1
