@<TRIPOS>MOLECULE
16219006
 85 88 0 0 0
SMALL
GASTEIGER

@<TRIPOS>ATOM
      1 O          -5.2045    4.0612    0.7843 O.2     1  PRO11      -0.2738
      2 O          -6.2874    5.5958   -3.0537 O.2     5  ASP55      -0.2735
      3 O          -9.2970    4.1997   -1.8543 O.2     2  VAL22      -0.2738
      4 O          -3.8584    1.8870   -5.0793 O.2     4  TRP44      -0.2738
      5 O          -6.4473    0.5309   -2.1356 O.2     3  LEU33      -0.2738
      6 OD1        -3.4201    6.8562   -4.8745 O.co2   5  ASP55      -0.5497
      7 OD2        -4.7844    7.7875   -6.4446 O.co2   5  ASP55      -0.5497
      8 N          -4.2686    4.9398   -2.2572 N.am    1  PRO11      -0.2884
      9 N          -6.8033    5.1542   -0.4356 N.am    2  VAL22      -0.3022
     10 N          -5.6018    3.3556   -4.8095 N.am    5  ASP55      -0.3021
     11 N          -8.2939    2.3305   -1.0006 N.am    3  LEU33      -0.3025
     12 N          -7.2980    1.2326   -4.1488 N.am    4  TRP44      -0.3022
     13 NE1        -8.6564    2.8345   -8.0602 N.ar    4  TRP44      -0.3604
     14 CA         -4.4581    5.6087   -0.9719 C.3     1  PRO11       0.1023
     15 CB         -3.0627    5.6263   -0.3418 C.3     1  PRO11      -0.0243
     16 CG         -2.3614    4.4369   -0.9867 C.3     1  PRO11      -0.0350
     17 CD         -2.9081    4.4533   -2.4041 C.3     1  PRO11       0.0156
     18 C          -5.4963    4.8567   -0.1068 C.2     1  PRO11       0.2342
     19 C          -5.1572    5.1441   -3.2931 C.2     5  ASP55       0.2369
     20 CA         -7.9430    4.4664    0.1567 C.3     2  VAL22       0.1017
     21 CA         -4.8034    4.5875   -4.6930 C.3     5  ASP55       0.1047
     22 CB         -8.9455    5.4617    0.7801 C.3     2  VAL22      -0.0197
     23 CA         -8.6700    1.4957   -2.1317 C.3     3  LEU33       0.0996
     24 C          -8.5980    3.6742   -0.9897 C.2     2  VAL22       0.2342
     25 CB         -5.2086    5.5776   -5.7725 C.3     5  ASP55       0.0138
     26 CA         -6.0751    0.9316   -4.9029 C.3     4  TRP44       0.1034
     27 CB         -9.4769    0.2680   -1.6895 C.3     3  LEU33      -0.0236
     28 CG        -10.8409    0.5936   -1.0446 C.3     3  LEU33      -0.0446
     29 C          -5.0569    2.0956   -4.8919 C.2     4  TRP44       0.2343
     30 CB         -6.3931    0.4821   -6.3390 C.3     4  TRP44       0.0013
     31 C          -7.3571    1.0400   -2.7876 C.2     3  LEU33       0.2340
     32 CG1       -10.1627    4.7267    1.3577 C.3     2  VAL22      -0.0605
     33 CG2        -8.2887    6.2875    1.8920 C.3     2  VAL22      -0.0605
     34 CG         -7.0926    1.5128   -7.1777 C.ar    4  TRP44      -0.0201
     35 CG         -4.3916    6.8607   -5.6805 C.2     5  ASP55       0.0440
     36 CD1       -11.5165   -0.7009   -0.5830 C.3     3  LEU33      -0.0626
     37 CD2       -11.7758    1.3474   -1.9921 C.3     3  LEU33      -0.0626
     38 CD2        -6.4670    2.4279   -8.0854 C.ar    4  TRP44       0.0029
     39 CD1        -8.4501    1.7727   -7.2198 C.ar    4  TRP44       0.0060
     40 CE2        -7.4660    3.2486   -8.6067 C.ar    4  TRP44       0.0467
     41 CE3        -5.1338    2.6545   -8.4855 C.ar    4  TRP44      -0.0523
     42 CZ2        -7.1986    4.2951   -9.4971 C.ar    4  TRP44      -0.0378
     43 CZ3        -4.8491    3.6938   -9.3777 C.ar    4  TRP44      -0.0611
     44 CH2        -5.8681    4.5044   -9.8700 C.ar    4  TRP44      -0.0598
     45 H          -6.9365    5.5739   -1.3645 H       2  VAL22       0.1495
     46 H          -6.5863    3.4640   -4.6150 H       5  ASP55       0.1495
     47 H          -7.4793    2.0301   -0.4686 H       3  LEU33       0.1495
     48 H          -7.9632    1.8617   -4.5818 H       4  TRP44       0.1495
     49 HE1        -9.5483    3.2688   -8.2509 H       4  TRP44       0.1653
     50 HA         -4.8152    6.6346   -1.1273 H       1  PRO11       0.0597
     51 HB1        -2.5428    6.5487   -0.6306 H       1  PRO11       0.0288
     52 HB2        -3.0646    5.5708    0.7505 H       1  PRO11       0.0288
     53 HG1        -1.2713    4.5171   -0.9555 H       1  PRO11       0.0281
     54 HG2        -2.6531    3.5103   -0.4787 H       1  PRO11       0.0281
     55 HD1        -2.8959    3.4626   -2.8654 H       1  PRO11       0.0465
     56 HD2        -2.3499    5.1550   -3.0324 H       1  PRO11       0.0465
     57 HA         -7.5979    3.7676    0.9279 H       2  VAL22       0.0597
     58 HA         -3.7444    4.3379   -4.7831 H       5  ASP55       0.0598
     59 HB         -9.3021    6.1577    0.0095 H       2  VAL22       0.0318
     60 HA         -9.2421    2.0752   -2.8622 H       3  LEU33       0.0594
     61 HB1        -5.0408    5.1430   -6.7623 H       5  ASP55       0.0348
     62 HB2        -6.2747    5.8278   -5.7047 H       5  ASP55       0.0348
     63 HA         -5.5778    0.0974   -4.3908 H       4  TRP44       0.0598
     64 HB1        -9.6336   -0.3867   -2.5574 H       3  LEU33       0.0290
     65 HB2        -8.8817   -0.3164   -0.9743 H       3  LEU33       0.0290
     66 HG        -10.6774    1.2168   -0.1565 H       3  LEU33       0.0296
     67 HB1        -5.4649    0.1794   -6.8395 H       4  TRP44       0.0337
     68 HB2        -7.0250   -0.4153   -6.2997 H       4  TRP44       0.0337
     69 HG11       -9.8601    3.9920    2.1117 H       2  VAL22       0.0233
     70 HG12      -10.8543    5.4317    1.8309 H       2  VAL22       0.0233
     71 HG13      -10.7211    4.1996    0.5777 H       2  VAL22       0.0233
     72 HG21       -7.8845    5.6412    2.6790 H       2  VAL22       0.0233
     73 HG22       -7.4710    6.9017    1.5021 H       2  VAL22       0.0233
     74 HG23       -9.0155    6.9655    2.3525 H       2  VAL22       0.0233
     75 HD11      -11.7217   -1.3657   -1.4292 H       3  LEU33       0.0232
     76 HD12      -10.8816   -1.2406    0.1273 H       3  LEU33       0.0232
     77 HD13      -12.4673   -0.4867   -0.0831 H       3  LEU33       0.0232
     78 HD21      -11.9098    0.8042   -2.9334 H       3  LEU33       0.0232
     79 HD22      -12.7631    1.4835   -1.5370 H       3  LEU33       0.0232
     80 HD23      -11.3914    2.3442   -2.2249 H       3  LEU33       0.0232
     81 HD1        -9.2836    1.3109   -6.7080 H       4  TRP44       0.0810
     82 HE3        -4.3218    2.0597   -8.0763 H       4  TRP44       0.0624
     83 HZ2        -7.9840    4.9471   -9.8635 H       4  TRP44       0.0638
     84 HZ3        -3.8171    3.8948   -9.6539 H       4  TRP44       0.0618
     85 HH2        -5.6202    5.3336  -10.5284 H       4  TRP44       0.0618
@<TRIPOS>BOND
     1     1    18    2
     2     2    19    2
     3     3    24    2
     4     4    29    2
     5     5    31    2
     6     6    35   ar
     7     7    35   ar
     8     8    14    1
     9     8    17    1
    10     8    19   am
    11     9    18   am
    12     9    20    1
    13    10    21    1
    14    10    29   am
    15    11    23    1
    16    11    24   am
    17    12    26    1
    18    12    31   am
    19    13    39   ar
    20    13    40   ar
    21    14    15    1
    22    14    18    1
    23    15    16    1
    24    16    17    1
    25    19    21    1
    26    20    22    1
    27    20    24    1
    28    21    25    1
    29    22    32    1
    30    22    33    1
    31    23    27    1
    32    23    31    1
    33    25    35    1
    34    26    29    1
    35    26    30    1
    36    27    28    1
    37    28    36    1
    38    28    37    1
    39    30    34    1
    40    34    38   ar
    41    34    39   ar
    42    38    40   ar
    43    38    41   ar
    44    40    42   ar
    45    41    43   ar
    46    42    44   ar
    47    43    44   ar
    48     9    45    1
    49    10    46    1
    50    11    47    1
    51    12    48    1
    52    13    49    1
    53    14    50    1
    54    15    51    1
    55    15    52    1
    56    16    53    1
    57    16    54    1
    58    17    55    1
    59    17    56    1
    60    20    57    1
    61    21    58    1
    62    22    59    1
    63    23    60    1
    64    25    61    1
    65    25    62    1
    66    26    63    1
    67    27    64    1
    68    27    65    1
    69    28    66    1
    70    30    67    1
    71    30    68    1
    72    32    69    1
    73    32    70    1
    74    32    71    1
    75    33    72    1
    76    33    73    1
    77    33    74    1
    78    36    75    1
    79    36    76    1
    80    36    77    1
    81    37    78    1
    82    37    79    1
    83    37    80    1
    84    39    81    1
    85    41    82    1
    86    42    83    1
    87    43    84    1
    88    44    85    1
@<TRIPOS>MOLECULE
../1EDN/PCA2_17-21.pdb
 47 48 0 0 0
SMALL
GASTEIGER

@<TRIPOS>ATOM
      1  N         -4.4680    0.3970   -1.5420 N.3    17  LEU17      -0.1231
      2  CA        -5.5730   -0.5090   -1.8150 C.3    17  LEU17       0.1693
      3  CB        -5.9860   -1.2020   -0.4580 C.3    17  LEU17       0.0284
      4  CG        -7.1280   -2.2100   -0.5390 C.3    17  LEU17       0.0019
      5  CD1       -6.7120   -3.3620   -1.4700 C.3    17  LEU17       0.0001
      6  CD2       -7.4980   -2.5610    0.9130 C.3    17  LEU17       0.0001
      7  C         -6.7000    0.2280   -2.5610 C.2    17  LEU17       0.2592
      8  O         -7.1860   -0.2780   -3.5510 O.2    17  LEU17      -0.2718
      9  N         -7.2650    1.2690   -1.9650 N.am   18  ASP18      -0.1960
     10  CA        -8.5260    1.8930   -2.2590 C.3    18  ASP18       0.1840
     11  CB        -9.6810    1.0560   -1.6740 C.3    18  ASP18       0.1450
     12  CG       -11.0010    1.6360   -2.1090 C.2    18  ASP18       0.3671
     13  OD1      -11.5960    2.3310   -1.2790 O.co2  18  ASP18      -0.2456
     14  OD2      -11.5460    1.2700   -3.1630 O.co2  18  ASP18      -0.2456
     15  C         -8.5570    3.3770   -1.7380 C.2    18  ASP18       0.2622
     16  O         -8.6960    4.2620   -2.5680 O.2    18  ASP18      -0.2715
     17  N         -8.4180    3.5730   -0.4160 N.am   19  ILE19      -0.1963
     18  CA        -8.3980    4.9040    0.1930 C.3    19  ILE19       0.1727
     19  CB        -8.4260    4.8620    1.7600 C.3    19  ILE19       0.0290
     20  CG2       -7.7310    6.0060    2.5190 C.3    19  ILE19       0.0023
     21  CG1       -9.9240    4.5740    2.2500 C.3    19  ILE19       0.0022
     22  CD1      -10.9740    5.6950    2.0110 C.3    19  ILE19       0.0001
     23  C         -7.1570    5.7010   -0.3260 C.2    19  ILE19       0.2616
     24  O         -7.3050    6.7970   -0.9200 O.2    19  ILE19      -0.2715
     25  N         -5.9900    5.0720   -0.2260 N.am   20  ILE20      -0.1963
     26  CA        -4.7520    5.3490   -0.9430 C.3    20  ILE20       0.1727
     27  CB        -3.5230    4.9310   -0.1080 C.3    20  ILE20       0.0290
     28  CG2       -2.1210    5.5060   -0.7390 C.3    20  ILE20       0.0023
     29  CG1       -3.5940    5.4760    1.3470 C.3    20  ILE20       0.0022
     30  CD1       -2.3570    5.1940    2.2260 C.3    20  ILE20       0.0001
     31  C         -4.7590    4.7050   -2.3650 C.2    20  ILE20       0.2617
     32  O         -4.2060    3.6200   -2.5900 O.2    20  ILE20      -0.2715
     33  N         -5.4060    5.3330   -3.3880 N.am   21  TRP21      -0.1938
     34  CA        -5.3950    4.7680   -4.7850 C.3    21  TRP21       0.2021
     35  CB        -6.6210    3.8650   -5.0310 C.3    21  TRP21       0.0612
     36  CG        -6.7890    3.3770   -6.4480 C.ar   21  TRP21       0.0007
     37  CD1       -7.1340    4.1960   -7.4760 C.ar   21  TRP21       0.0946
     38  NE1       -7.1740    3.4060   -8.6160 N.ar   21  TRP21      -0.2442
     39  CE2       -6.9360    2.0750   -8.3350 C.ar   21  TRP21       0.0810
     40  CZ2       -6.8300    1.0510   -9.2060 C.ar   21  TRP21       0.0191
     41  CH2       -6.3330   -0.2010   -8.7710 C.ar   21  TRP21       0.0015
     42  CZ3       -5.9560   -0.2520   -7.3640 C.ar   21  TRP21       0.0001
     43  CE3       -6.0150    0.8940   -6.5860 C.ar   21  TRP21       0.0012
     44  CD2       -6.6320    2.0560   -6.9830 C.ar   21  TRP21       0.0152
     45  C         -5.1960    5.8550   -5.8260 C.2    21  TRP21       0.3845
     46  O         -4.1840    5.6720   -6.5070 O.co2  21  TRP21      -0.2437
     47  OXT       -5.9640    6.8330   -6.0170 O.co2  21  TRP21      -0.2437
@<TRIPOS>BOND
     1    40    41   ar
     2    40    39   ar
     3    41    42   ar
     4    38    39   ar
     5    38    37   ar
     6    39    44   ar
     7    37    36   ar
     8    42    43   ar
     9    44    43   ar
    10    44    36   ar
    11    46    45   ar
    12    36    35    1
    13    47    45   ar
    14    45    34    1
    15    35    34    1
    16    34    33    1
    17     8     7    2
    18    33    31   am
    19    14    12   ar
    20    32    31    2
    21    16    15    2
    22     7     9   am
    23     7     2    1
    24    31    26    1
    25    10     9    1
    26    10    15    1
    27    10    11    1
    28    12    11    1
    29    12    13   ar
    30     2     1    1
    31     2     3    1
    32    15    17   am
    33     5     4    1
    34    26    25    1
    35    26    27    1
    36    24    23    2
    37    28    27    1
    38     4     3    1
    39     4     6    1
    40    17    18    1
    41    23    25   am
    42    23    18    1
    43    27    29    1
    44    18    19    1
    45    29    30    1
    46    19    21    1
    47    19    20    1
    48    22    21    1
