@<TRIPOS>MOLECULE
23693553
 97 99 0 0 0
SMALL
GASTEIGER

@<TRIPOS>ATOM
      1 O          -7.4305    5.1892   -1.0497 O.2     1  LIG11      -0.2526
      2 O          -4.2682    5.7970   -2.4556 O.2     1  LIG11      -0.2731
      3 O          -7.3898    3.8740   -3.8156 O.2     1  LIG11      -0.2689
      4 O          -4.2731    0.5204   -2.0913 O.co2   1  LIG11      -0.5479
      5 OXT        -4.0327    2.1769   -3.6503 O.co2   1  LIG11      -0.5479
      6 O          -6.7951   -0.4835   -8.6556 O.3     1  LIG11      -0.4515
      7 O          -5.8990   -0.4365   -6.5276 O.2     1  LIG11      -0.2227
      8 N          -8.1464    5.4593    1.1216 N.am    1  LIG11      -0.2801
      9 N          -5.8638    5.5772    0.5121 N.am    1  LIG11      -0.2879
     10 N          -5.5584    3.9084   -2.3951 N.am    1  LIG11      -0.2273
     11 N          -4.0046    4.2685   -4.8680 N.4     1  LIG11       0.2276
     12 N          -6.5095    1.5148   -7.5701 N.ar    1  LIG11      -0.2526
     13 C          -7.8645    5.9036    2.5112 C.3     1  LIG11       0.0249
     14 C          -9.3663    4.6494    0.8181 C.3     1  LIG11       0.0249
     15 C          -9.0198    5.7514    3.5081 C.3     1  LIG11      -0.0344
     16 C         -10.3793    4.4729    1.9613 C.3     1  LIG11      -0.0344
     17 C          -9.7312    4.4307    3.3246 C.3     1  LIG11      -0.0497
     18 CA         -4.7212    4.9637   -0.2001 C.3     1  LIG11       0.1019
     19 C          -2.6935    5.4732    1.4992 C.3     1  LIG11      -0.0356
     20 C          -3.4244    5.7564    0.1526 C.3     1  LIG11      -0.0210
     21 C          -7.1634    5.4036    0.1251 C.2     1  LIG11       0.3033
     22 C          -7.4206    7.3754    2.5472 C.3     1  LIG11      -0.0464
     23 C         -10.1599    5.1506   -0.4045 C.3     1  LIG11      -0.0464
     24 C          -4.8303    4.9252   -1.7749 C.2     1  LIG11       0.2429
     25 C          -2.2155    4.0136    1.5724 C.3     1  LIG11      -0.0600
     26 C          -3.5541    5.7840    2.7311 C.3     1  LIG11      -0.0600
     27 C          -1.4497    6.3904    1.5481 C.3     1  LIG11      -0.0600
     28 CA         -5.5905    2.5080   -1.8708 C.3     1  LIG11       0.0730
     29 C          -6.9838    1.8850   -1.6600 C.3     1  LIG11      -0.0286
     30 C          -6.2059    4.1475   -3.6145 C.2     1  LIG11       0.2708
     31 CA         -5.3766    4.8473   -4.7159 C.3     1  LIG11       0.0579
     32 C          -7.5425    1.0129   -2.7917 C.3     1  LIG11      -0.0513
     33 C          -6.0916    4.9246   -6.0713 C.3     1  LIG11       0.0261
     34 C          -4.5561    1.6192   -2.6253 C.2     1  LIG11       0.0626
     35 C          -6.3277    3.6728   -6.8657 C.ar    1  LIG11      -0.0158
     36 C          -8.8780    0.3477   -2.4305 C.3     1  LIG11      -0.0558
     37 C          -6.9502    3.6524   -8.1540 C.ar    1  LIG11       0.0038
     38 C          -6.0771    2.3584   -6.5466 C.ar    1  LIG11       0.0202
     39 C          -7.0624    2.3200   -8.5734 C.ar    1  LIG11       0.0598
     40 C          -9.9795    1.3223   -2.0395 C.3     1  LIG11      -0.0653
     41 C          -7.4510    4.6795   -8.9867 C.ar    1  LIG11      -0.0523
     42 C          -7.6733    2.0069   -9.8061 C.ar    1  LIG11      -0.0371
     43 C          -8.0520    4.3653  -10.2065 C.ar    1  LIG11      -0.0611
     44 C          -6.3729    0.1083   -7.5140 C.2     1  LIG11       0.4196
     45 C          -8.1621    3.0428  -10.6079 C.ar    1  LIG11      -0.0598
     46 C          -6.6577   -1.9056   -8.6825 C.3     1  LIG11       0.0835
     47 H          -5.7376    5.5922    1.5035 H       1  LIG11       0.1510
     48 H1         -3.3522    4.7249   -4.2227 H       1  LIG11       0.2002
     49 H2         -4.0094    3.2718   -4.5021 H       1  LIG11       0.2002
     50 H3         -3.6354    4.2074   -5.8153 H       1  LIG11       0.2002
     51 H          -7.0519    5.2696    2.8867 H       1  LIG11       0.0498
     52 H          -8.9878    3.6453    0.5795 H       1  LIG11       0.0498
     53 H          -8.6347    5.8259    4.5323 H       1  LIG11       0.0283
     54 H          -9.7400    6.5721    3.3877 H       1  LIG11       0.0283
     55 H         -11.1088    5.2945    1.9453 H       1  LIG11       0.0283
     56 H         -10.9567    3.5542    1.7972 H       1  LIG11       0.0283
     57 H          -9.0357    3.5881    3.4075 H       1  LIG11       0.0266
     58 H         -10.4980    4.3064    4.0971 H       1  LIG11       0.0266
     59 HA         -4.6190    3.9594    0.2000 H       1  LIG11       0.0595
     60 H          -2.6816    5.5670   -0.6358 H       1  LIG11       0.0293
     61 H          -3.6506    6.8311    0.0930 H       1  LIG11       0.0293
     62 H          -8.2004    8.0250    2.1338 H       1  LIG11       0.0248
     63 H          -7.2197    7.6948    3.5756 H       1  LIG11       0.0248
     64 H          -6.5118    7.5609    1.9700 H       1  LIG11       0.0248
     65 H         -10.3459    6.2271   -0.3362 H       1  LIG11       0.0248
     66 H          -9.6507    4.9537   -1.3506 H       1  LIG11       0.0248
     67 H         -11.1259    4.6373   -0.4799 H       1  LIG11       0.0248
     68 H          -1.6193    3.7475    0.6926 H       1  LIG11       0.0235
     69 H          -1.5903    3.8495    2.4579 H       1  LIG11       0.0235
     70 H          -3.0542    3.3133    1.6358 H       1  LIG11       0.0235
     71 H          -4.0198    6.7723    2.6513 H       1  LIG11       0.0235
     72 H          -4.3394    5.0364    2.8766 H       1  LIG11       0.0235
     73 H          -2.9485    5.7811    3.6452 H       1  LIG11       0.0235
     74 H          -1.7372    7.4476    1.5109 H       1  LIG11       0.0235
     75 H          -0.8737    6.2356    2.4676 H       1  LIG11       0.0235
     76 H          -0.7794    6.1967    0.7028 H       1  LIG11       0.0235
     77 HA         -5.1603    2.5376   -0.8698 H       1  LIG11       0.0567
     78 H          -6.9262    1.2476   -0.7667 H       1  LIG11       0.0287
     79 H          -7.6963    2.6766   -1.4109 H       1  LIG11       0.0287
     80 HA         -5.2354    5.8939   -4.4295 H       1  LIG11       0.0952
     81 H          -7.6773    1.5869   -3.7105 H       1  LIG11       0.0266
     82 H          -6.8324    0.2148   -3.0333 H       1  LIG11       0.0266
     83 H          -7.0652    5.4110   -5.9213 H       1  LIG11       0.0374
     84 H          -5.5133    5.6069   -6.7115 H       1  LIG11       0.0374
     85 H          -9.2173   -0.2354   -3.2950 H       1  LIG11       0.0263
     86 H          -8.7234   -0.3646   -1.6115 H       1  LIG11       0.0263
     87 H          -5.6517    1.8985   -5.6619 H       1  LIG11       0.0818
     88 H         -10.1049    2.1054   -2.7934 H       1  LIG11       0.0230
     89 H         -10.9317    0.7914   -1.9376 H       1  LIG11       0.0230
     90 H          -9.7695    1.7966   -1.0762 H       1  LIG11       0.0230
     91 H          -7.3865    5.7190   -8.6775 H       1  LIG11       0.0624
     92 H          -7.7902    0.9837  -10.1484 H       1  LIG11       0.0638
     93 H          -8.4441    5.1592  -10.8369 H       1  LIG11       0.0618
     94 H          -8.6423    2.8046  -11.5545 H       1  LIG11       0.0618
     95 H          -6.5015   -2.2074   -9.7221 H       1  LIG11       0.0661
     96 H          -5.8047   -2.2613   -8.0962 H       1  LIG11       0.0661
     97 H          -7.5837   -2.3619   -8.3219 H       1  LIG11       0.0661
@<TRIPOS>BOND
     1     1    21    2
     2     2    24    2
     3     3    30    2
     4     4    34   ar
     5     5    34   ar
     6     6    44    1
     7     6    46    1
     8     7    44    2
     9     8    13    1
    10     8    14    1
    11     9    21   am
    12    10    24   am
    13    10    30   am
    14    12    39   ar
    15    12    38   ar
    16    12    44   am
    17    13    15    1
    18    13    22    1
    19    14    16    1
    20    14    23    1
    21    15    17    1
    22    16    17    1
    23    18     9    1
    24    18    24    1
    25    18    20    1
    26    19    20    1
    27    19    27    1
    28    19    26    1
    29    19    25    1
    30    21     8   am
    31    28    34    1
    32    28    29    1
    33    28    10    1
    34    29    32    1
    35    31    33    1
    36    31    11    1
    37    31    30    1
    38    32    36    1
    39    33    35    1
    40    35    38   ar
    41    35    37   ar
    42    36    40    1
    43    37    39   ar
    44    37    41   ar
    45    39    42   ar
    46    41    43   ar
    47    42    45   ar
    48    43    45   ar
    49     9    47    1
    50    11    48    1
    51    11    49    1
    52    11    50    1
    53    13    51    1
    54    14    52    1
    55    15    53    1
    56    15    54    1
    57    16    55    1
    58    16    56    1
    59    17    57    1
    60    17    58    1
    61    18    59    1
    62    20    60    1
    63    20    61    1
    64    22    62    1
    65    22    63    1
    66    22    64    1
    67    23    65    1
    68    23    66    1
    69    23    67    1
    70    25    68    1
    71    25    69    1
    72    25    70    1
    73    26    71    1
    74    26    72    1
    75    26    73    1
    76    27    74    1
    77    27    75    1
    78    27    76    1
    79    28    77    1
    80    29    78    1
    81    29    79    1
    82    31    80    1
    83    32    81    1
    84    32    82    1
    85    33    83    1
    86    33    84    1
    87    36    85    1
    88    36    86    1
    89    38    87    1
    90    40    88    1
    91    40    89    1
    92    40    90    1
    93    41    91    1
    94    42    92    1
    95    43    93    1
    96    45    94    1
    97    46    95    1
    98    46    96    1
    99    46    97    1
@<TRIPOS>MOLECULE
../1EDN/PCA2_17-21.pdb
 47 48 0 0 0
SMALL
GASTEIGER

@<TRIPOS>ATOM
      1  N         -4.4680    0.3970   -1.5420 N.3    17  LEU17      -0.1231
      2  CA        -5.5730   -0.5090   -1.8150 C.3    17  LEU17       0.1693
      3  CB        -5.9860   -1.2020   -0.4580 C.3    17  LEU17       0.0284
      4  CG        -7.1280   -2.2100   -0.5390 C.3    17  LEU17       0.0019
      5  CD1       -6.7120   -3.3620   -1.4700 C.3    17  LEU17       0.0001
      6  CD2       -7.4980   -2.5610    0.9130 C.3    17  LEU17       0.0001
      7  C         -6.7000    0.2280   -2.5610 C.2    17  LEU17       0.2592
      8  O         -7.1860   -0.2780   -3.5510 O.2    17  LEU17      -0.2718
      9  N         -7.2650    1.2690   -1.9650 N.am   18  ASP18      -0.1960
     10  CA        -8.5260    1.8930   -2.2590 C.3    18  ASP18       0.1840
     11  CB        -9.6810    1.0560   -1.6740 C.3    18  ASP18       0.1450
     12  CG       -11.0010    1.6360   -2.1090 C.2    18  ASP18       0.3671
     13  OD1      -11.5960    2.3310   -1.2790 O.co2  18  ASP18      -0.2456
     14  OD2      -11.5460    1.2700   -3.1630 O.co2  18  ASP18      -0.2456
     15  C         -8.5570    3.3770   -1.7380 C.2    18  ASP18       0.2622
     16  O         -8.6960    4.2620   -2.5680 O.2    18  ASP18      -0.2715
     17  N         -8.4180    3.5730   -0.4160 N.am   19  ILE19      -0.1963
     18  CA        -8.3980    4.9040    0.1930 C.3    19  ILE19       0.1727
     19  CB        -8.4260    4.8620    1.7600 C.3    19  ILE19       0.0290
     20  CG2       -7.7310    6.0060    2.5190 C.3    19  ILE19       0.0023
     21  CG1       -9.9240    4.5740    2.2500 C.3    19  ILE19       0.0022
     22  CD1      -10.9740    5.6950    2.0110 C.3    19  ILE19       0.0001
     23  C         -7.1570    5.7010   -0.3260 C.2    19  ILE19       0.2616
     24  O         -7.3050    6.7970   -0.9200 O.2    19  ILE19      -0.2715
     25  N         -5.9900    5.0720   -0.2260 N.am   20  ILE20      -0.1963
     26  CA        -4.7520    5.3490   -0.9430 C.3    20  ILE20       0.1727
     27  CB        -3.5230    4.9310   -0.1080 C.3    20  ILE20       0.0290
     28  CG2       -2.1210    5.5060   -0.7390 C.3    20  ILE20       0.0023
     29  CG1       -3.5940    5.4760    1.3470 C.3    20  ILE20       0.0022
     30  CD1       -2.3570    5.1940    2.2260 C.3    20  ILE20       0.0001
     31  C         -4.7590    4.7050   -2.3650 C.2    20  ILE20       0.2617
     32  O         -4.2060    3.6200   -2.5900 O.2    20  ILE20      -0.2715
     33  N         -5.4060    5.3330   -3.3880 N.am   21  TRP21      -0.1938
     34  CA        -5.3950    4.7680   -4.7850 C.3    21  TRP21       0.2021
     35  CB        -6.6210    3.8650   -5.0310 C.3    21  TRP21       0.0612
     36  CG        -6.7890    3.3770   -6.4480 C.ar   21  TRP21       0.0007
     37  CD1       -7.1340    4.1960   -7.4760 C.ar   21  TRP21       0.0946
     38  NE1       -7.1740    3.4060   -8.6160 N.ar   21  TRP21      -0.2442
     39  CE2       -6.9360    2.0750   -8.3350 C.ar   21  TRP21       0.0810
     40  CZ2       -6.8300    1.0510   -9.2060 C.ar   21  TRP21       0.0191
     41  CH2       -6.3330   -0.2010   -8.7710 C.ar   21  TRP21       0.0015
     42  CZ3       -5.9560   -0.2520   -7.3640 C.ar   21  TRP21       0.0001
     43  CE3       -6.0150    0.8940   -6.5860 C.ar   21  TRP21       0.0012
     44  CD2       -6.6320    2.0560   -6.9830 C.ar   21  TRP21       0.0152
     45  C         -5.1960    5.8550   -5.8260 C.2    21  TRP21       0.3845
     46  O         -4.1840    5.6720   -6.5070 O.co2  21  TRP21      -0.2437
     47  OXT       -5.9640    6.8330   -6.0170 O.co2  21  TRP21      -0.2437
@<TRIPOS>BOND
     1    40    41   ar
     2    40    39   ar
     3    41    42   ar
     4    38    39   ar
     5    38    37   ar
     6    39    44   ar
     7    37    36   ar
     8    42    43   ar
     9    44    43   ar
    10    44    36   ar
    11    46    45   ar
    12    36    35    1
    13    47    45   ar
    14    45    34    1
    15    35    34    1
    16    34    33    1
    17     8     7    2
    18    33    31   am
    19    14    12   ar
    20    32    31    2
    21    16    15    2
    22     7     9   am
    23     7     2    1
    24    31    26    1
    25    10     9    1
    26    10    15    1
    27    10    11    1
    28    12    11    1
    29    12    13   ar
    30     2     1    1
    31     2     3    1
    32    15    17   am
    33     5     4    1
    34    26    25    1
    35    26    27    1
    36    24    23    2
    37    28    27    1
    38     4     3    1
    39     4     6    1
    40    17    18    1
    41    23    25   am
    42    23    18    1
    43    27    29    1
    44    18    19    1
    45    29    30    1
    46    19    21    1
    47    19    20    1
    48    22    21    1
