@<TRIPOS>MOLECULE
159594
 75 78 0 0 0
SMALL
GASTEIGER

@<TRIPOS>ATOM
      1 O         -10.1294    1.3647    1.1100 O.co2   1  LIG11      -0.5493
      2 O         -10.2826    3.0810   -0.3884 O.co2   1  LIG11      -0.5493
      3 O          -5.3447    3.3358    4.6491 O.3     1  LIG11      -0.4526
      4 O          -5.0994    4.2465   -3.0614 O.2     1  LIG11      -0.2697
      5 O          -3.6172    4.9076    4.0499 O.3     1  LIG11      -0.4526
      6 O          -6.3577   -3.6739   -1.5456 O.3     1  LIG11      -0.4951
      7 N          -7.0470    2.8409   -1.7823 N.4     1  LIG11       0.2481
      8 N          -5.7271    3.7937   -5.2364 N.am    1  LIG11      -0.2971
      9 C          -8.1661    2.3193    0.2611 C.3     1  LIG11       0.0574
     10 C          -7.7280    3.7985    0.3070 C.3     1  LIG11       0.0378
     11 C          -7.9636    1.8001   -1.1629 C.3     1  LIG11       0.0143
     12 C          -7.5625    4.1328   -1.1804 C.3     1  LIG11      -0.0230
     13 C          -6.5261    4.0608    1.2212 C.ar    1  LIG11      -0.0347
     14 C          -7.4823    0.3578   -1.2333 C.ar    1  LIG11       0.0011
     15 C          -7.0235    2.8410   -3.2975 C.3     1  LIG11       0.0468
     16 C          -9.6780    2.2617    0.3585 C.2     1  LIG11       0.0513
     17 C          -6.5083    3.4820    2.5094 C.ar    1  LIG11      -0.0125
     18 C          -5.8627    3.6845   -3.8535 C.2     1  LIG11       0.2608
     19 C          -5.5065    4.9916    0.9012 C.ar    1  LIG11      -0.0544
     20 C          -8.4248   -0.6545   -0.9675 C.ar    1  LIG11      -0.0498
     21 C          -6.1818   -0.0368   -1.5718 C.ar    1  LIG11      -0.0498
     22 C          -5.4890    3.8085    3.3824 C.ar    1  LIG11       0.1665
     23 C          -4.4877    5.3111    1.8112 C.ar    1  LIG11      -0.0159
     24 C          -4.5056    4.7005    3.0426 C.ar    1  LIG11       0.1662
     25 C          -8.0931   -2.0100   -1.0508 C.ar    1  LIG11      -0.0195
     26 C          -5.8568   -1.3974   -1.6699 C.ar    1  LIG11      -0.0195
     27 C          -4.7233    4.7304   -5.7687 C.3     1  LIG11       0.0148
     28 C          -6.4528    2.9465   -6.1940 C.3     1  LIG11       0.0148
     29 C          -6.8059   -2.3891   -1.4103 C.ar    1  LIG11       0.1201
     30 C          -5.3139    5.8610   -6.6199 C.3     1  LIG11      -0.0374
     31 C          -5.8463    1.5498   -6.3866 C.3     1  LIG11      -0.0374
     32 C          -4.1636    4.0468    5.0718 C.3     1  LIG11       0.2332
     33 C          -6.3174    6.7274   -5.8587 C.3     1  LIG11      -0.0545
     34 C          -4.4984    1.5569   -7.1086 C.3     1  LIG11      -0.0545
     35 C          -6.8678    7.8357   -6.7440 C.3     1  LIG11      -0.0652
     36 C          -4.0641    0.1529   -7.5011 C.3     1  LIG11      -0.0652
     37 C          -7.2606   -4.7058   -1.1599 C.3     1  LIG11       0.0788
     38 H          -6.0890    2.7235   -1.4303 H       1  LIG11       0.2045
     39 H          -7.6960    1.6757    1.0106 H       1  LIG11       0.0427
     40 H          -8.5115    4.4517    0.7155 H       1  LIG11       0.0409
     41 H          -8.8615    1.8350   -1.7968 H       1  LIG11       0.0911
     42 H          -8.5218    4.3551   -1.6609 H       1  LIG11       0.0821
     43 H          -6.8689    4.9369   -1.4204 H       1  LIG11       0.0821
     44 H          -7.9835    3.2351   -3.6437 H       1  LIG11       0.0913
     45 H          -6.8971    1.8055   -3.6171 H       1  LIG11       0.0913
     46 H          -7.2950    2.8130    2.8505 H       1  LIG11       0.0658
     47 H          -5.4899    5.5280   -0.0431 H       1  LIG11       0.0622
     48 H          -9.4464   -0.3973   -0.6777 H       1  LIG11       0.0623
     49 H          -5.3937    0.6818   -1.7704 H       1  LIG11       0.0623
     50 H          -3.7224    6.0391    1.5648 H       1  LIG11       0.0655
     51 H          -8.8706   -2.7334   -0.8257 H       1  LIG11       0.0654
     52 H          -4.8462   -1.6923   -1.9446 H       1  LIG11       0.0654
     53 H          -4.0099    4.1638   -6.3722 H       1  LIG11       0.0464
     54 H          -4.1471    5.1772   -4.9514 H       1  LIG11       0.0464
     55 H          -6.5295    3.4585   -7.1574 H       1  LIG11       0.0464
     56 H          -7.4789    2.8267   -5.8318 H       1  LIG11       0.0464
     57 H          -5.7896    5.4535   -7.5186 H       1  LIG11       0.0280
     58 H          -4.4876    6.4918   -6.9716 H       1  LIG11       0.0280
     59 H          -6.5584    0.9569   -6.9744 H       1  LIG11       0.0280
     60 H          -5.7328    1.0429   -5.4221 H       1  LIG11       0.0280
     61 H          -3.3982    3.3177    5.3604 H       1  LIG11       0.1166
     62 H          -4.4159    4.6567    5.9473 H       1  LIG11       0.1166
     63 H          -5.8352    7.1707   -4.9800 H       1  LIG11       0.0263
     64 H          -7.1532    6.1166   -5.5000 H       1  LIG11       0.0263
     65 H          -3.7288    1.9844   -6.4574 H       1  LIG11       0.0263
     66 H          -4.5553    2.1781   -8.0099 H       1  LIG11       0.0263
     67 H          -6.0649    8.4877   -7.1032 H       1  LIG11       0.0230
     68 H          -7.5809    8.4496   -6.1855 H       1  LIG11       0.0230
     69 H          -7.3867    7.4199   -7.6140 H       1  LIG11       0.0230
     70 H          -3.9761   -0.4913   -6.6207 H       1  LIG11       0.0230
     71 H          -3.0897    0.1843   -7.9989 H       1  LIG11       0.0230
     72 H          -4.7822   -0.3011   -8.1913 H       1  LIG11       0.0230
     73 H          -6.7470   -5.6641   -1.2832 H       1  LIG11       0.0660
     74 H          -8.1454   -4.7188   -1.8054 H       1  LIG11       0.0660
     75 H          -7.5419   -4.6118   -0.1056 H       1  LIG11       0.0660
@<TRIPOS>BOND
     1     1    16   ar
     2     2    16   ar
     3     3    22    1
     4     3    32    1
     5     4    18    2
     6     5    24    1
     7     5    32    1
     8     6    29    1
     9     6    37    1
    10     7    11    1
    11     7    12    1
    12     7    15    1
    13     8    18   am
    14     8    27    1
    15     8    28    1
    16     9    10    1
    17     9    11    1
    18     9    16    1
    19    10    12    1
    20    10    13    1
    21    11    14    1
    22    13    17   ar
    23    13    19   ar
    24    14    20   ar
    25    14    21   ar
    26    15    18    1
    27    17    22   ar
    28    19    23   ar
    29    20    25   ar
    30    21    26   ar
    31    22    24   ar
    32    23    24   ar
    33    25    29   ar
    34    26    29   ar
    35    27    30    1
    36    28    31    1
    37    30    33    1
    38    31    34    1
    39    33    35    1
    40    34    36    1
    41     7    38    1
    42     9    39    1
    43    10    40    1
    44    11    41    1
    45    12    42    1
    46    12    43    1
    47    15    44    1
    48    15    45    1
    49    17    46    1
    50    19    47    1
    51    20    48    1
    52    21    49    1
    53    23    50    1
    54    25    51    1
    55    26    52    1
    56    27    53    1
    57    27    54    1
    58    28    55    1
    59    28    56    1
    60    30    57    1
    61    30    58    1
    62    31    59    1
    63    31    60    1
    64    32    61    1
    65    32    62    1
    66    33    63    1
    67    33    64    1
    68    34    65    1
    69    34    66    1
    70    35    67    1
    71    35    68    1
    72    35    69    1
    73    36    70    1
    74    36    71    1
    75    36    72    1
    76    37    73    1
    77    37    74    1
    78    37    75    1
@<TRIPOS>MOLECULE
../1EDN/PCA3_17-21.pdb
 47 48 0 0 0
SMALL
GASTEIGER

@<TRIPOS>ATOM
      1  N         -4.2370    0.0490   -1.5930 N.3    17  LEU17      -0.1231
      2  CA        -5.5250   -0.5610   -1.9200 C.3    17  LEU17       0.1693
      3  CB        -5.7360   -1.8160   -1.1010 C.3    17  LEU17       0.0284
      4  CG        -6.9950   -2.5690   -1.5730 C.3    17  LEU17       0.0019
      5  CD1       -6.7530   -3.1800   -3.0080 C.3    17  LEU17       0.0001
      6  CD2       -7.2580   -3.7400   -0.6960 C.3    17  LEU17       0.0001
      7  C         -6.6810    0.4320   -1.9250 C.2    17  LEU17       0.2592
      8  O         -7.3270    0.6200   -2.9560 O.2    17  LEU17      -0.2718
      9  N         -6.9500    1.1080   -0.7900 N.am   18  ASP18      -0.1960
     10  CA        -8.0880    2.0070   -0.5710 C.3    18  ASP18       0.1840
     11  CB        -9.1090    1.3410    0.3760 C.3    18  ASP18       0.1450
     12  CG       -10.1470    2.2990    0.9520 C.2    18  ASP18       0.3671
     13  OD1      -11.0720    2.5310    0.1500 O.co2  18  ASP18      -0.2456
     14  OD2      -10.1960    2.6850    2.1610 O.co2  18  ASP18      -0.2456
     15  C         -7.6280    3.3500    0.0060 C.2    18  ASP18       0.2622
     16  O         -7.9950    4.4650   -0.3580 O.2    18  ASP18      -0.2715
     17  N         -6.8140    3.2050    1.0390 N.am   19  ILE19      -0.1963
     18  CA        -6.1800    4.3790    1.8160 C.3    19  ILE19       0.1727
     19  CB        -5.3140    3.8890    3.0670 C.3    19  ILE19       0.0290
     20  CG2       -4.6600    5.0630    3.8540 C.3    19  ILE19       0.0023
     21  CG1       -6.1440    2.9790    3.9890 C.3    19  ILE19       0.0022
     22  CD1       -5.5170    2.2940    5.2130 C.3    19  ILE19       0.0001
     23  C         -5.2670    5.2520    0.8640 C.2    19  ILE19       0.2616
     24  O         -5.3920    6.4650    0.9090 O.2    19  ILE19      -0.2715
     25  N         -4.4890    4.6060    0.0020 N.am   20  ILE20      -0.1963
     26  CA        -3.9690    5.2910   -1.1850 C.3    20  ILE20       0.1727
     27  CB        -2.4460    5.7340   -1.0120 C.3    20  ILE20       0.0290
     28  CG2       -2.3030    7.0110   -0.1100 C.3    20  ILE20       0.0023
     29  CG1       -1.4300    4.6170   -0.6100 C.3    20  ILE20       0.0022
     30  CD1        0.0800    4.9990   -0.7110 C.3    20  ILE20       0.0001
     31  C         -4.1660    4.3690   -2.4130 C.2    20  ILE20       0.2617
     32  O         -3.9200    3.1710   -2.5010 O.2    20  ILE20      -0.2715
     33  N         -4.6410    5.0460   -3.5090 N.am   21  TRP21      -0.1938
     34  CA        -4.8980    4.4430   -4.8120 C.3    21  TRP21       0.2021
     35  CB        -6.2680    3.7450   -4.8170 C.3    21  TRP21       0.0612
     36  CG        -6.5090    2.9660   -6.0890 C.ar   21  TRP21       0.0007
     37  CD1       -7.0550    3.4090   -7.2190 C.ar   21  TRP21       0.0946
     38  NE1       -7.1560    2.4190   -8.1260 N.ar   21  TRP21      -0.2442
     39  CE2       -6.6880    1.2600   -7.6470 C.ar   21  TRP21       0.0810
     40  CZ2       -6.5320   -0.1050   -8.0600 C.ar   21  TRP21       0.0191
     41  CH2       -5.9630   -1.0770   -7.2340 C.ar   21  TRP21       0.0015
     42  CZ3       -5.4330   -0.7150   -5.9030 C.ar   21  TRP21       0.0001
     43  CE3       -5.5290    0.6400   -5.5430 C.ar   21  TRP21       0.0012
     44  CD2       -6.2440    1.5830   -6.3190 C.ar   21  TRP21       0.0152
     45  C         -4.7460    5.5030   -5.9410 C.2    21  TRP21       0.3845
     46  O         -5.6740    6.3580   -6.0770 O.co2  21  TRP21      -0.2437
     47  OXT       -3.7150    5.4030   -6.6310 O.co2  21  TRP21      -0.2437
@<TRIPOS>BOND
     1    38    39   ar
     2    38    37   ar
     3    40    39   ar
     4    40    41   ar
     5    39    44   ar
     6    41    42   ar
     7    37    36   ar
     8    47    45   ar
     9    44    36   ar
    10    44    43   ar
    11    36    35    1
    12    46    45   ar
    13    45    34    1
    14    42    43   ar
    15    35    34    1
    16    34    33    1
    17    33    31   am
    18     5     4    1
    19     8     7    2
    20    32    31    2
    21    31    26    1
    22     7     2    1
    23     7     9   am
    24     2     1    1
    25     2     3    1
    26     4     3    1
    27     4     6    1
    28    26    27    1
    29    26    25    1
    30    27    29    1
    31    27    28    1
    32     9    10    1
    33    30    29    1
    34    10    15    1
    35    10    11    1
    36    16    15    2
    37    25    23   am
    38    15    17   am
    39    13    12   ar
    40    11    12    1
    41    23    24    2
    42    23    18    1
    43    12    14   ar
    44    17    18    1
    45    18    19    1
    46    19    20    1
    47    19    21    1
    48    21    22    1
