@<TRIPOS>MOLECULE
6918493
 49 51 0 0 0
SMALL
GASTEIGER

@<TRIPOS>ATOM
      1 O          -5.1928    1.0280   -0.2375 O.3     1  LIG11      -0.3632
      2 O          -6.9620    1.9247   -3.4645 O.3     1  LIG11      -0.4495
      3 O          -8.1710   -0.3332   -2.5701 O.co2   1  LIG11      -0.5459
      4 O          -6.1574   -1.2607   -2.0597 O.co2   1  LIG11      -0.5459
      5 N          -6.2143    0.4518   -5.1438 N.ar    1  LIG11      -0.2002
      6 N          -6.9352    2.6645   -5.6307 N.ar    1  LIG11      -0.2002
      7 C          -5.9749    1.8165   -1.1880 C.3     1  LIG11       0.1609
      8 C          -6.2094    1.0766   -2.5506 C.3     1  LIG11       0.1791
      9 C          -7.3405    2.0921   -0.4907 C.ar    1  LIG11      -0.0075
     10 C          -5.1591    3.1542   -1.2968 C.ar    1  LIG11      -0.0075
     11 C          -8.0874    3.2569   -0.7555 C.ar    1  LIG11      -0.0554
     12 C          -4.6615    3.6721   -2.5038 C.ar    1  LIG11      -0.0554
     13 C          -7.8948    1.1521    0.3982 C.ar    1  LIG11      -0.0554
     14 C          -4.8637    3.8746   -0.1163 C.ar    1  LIG11      -0.0554
     15 C          -6.9222   -0.2916   -2.3650 C.2     1  LIG11       0.0856
     16 C          -3.9289    0.5567   -0.6811 C.3     1  LIG11       0.0382
     17 C          -9.3136    3.4889   -0.1265 C.ar    1  LIG11      -0.0614
     18 C          -3.9286    4.8635   -2.5361 C.ar    1  LIG11      -0.0614
     19 C          -9.1288    1.3759    1.0139 C.ar    1  LIG11      -0.0614
     20 C          -4.1276    5.0611   -0.1472 C.ar    1  LIG11      -0.0614
     21 C          -9.8341    2.5491    0.7591 C.ar    1  LIG11      -0.0617
     22 C          -3.6624    5.5580   -1.3598 C.ar    1  LIG11      -0.0617
     23 C          -6.7328    1.6350   -4.7903 C.ar    1  LIG11       0.3191
     24 C          -5.9504    0.2549   -6.4434 C.ar    1  LIG11       0.0453
     25 C          -6.6299    2.4515   -6.9240 C.ar    1  LIG11       0.0453
     26 C          -6.1376    1.2449   -7.3861 C.ar    1  LIG11      -0.0193
     27 C          -5.4277   -1.0927   -6.8331 C.3     1  LIG11      -0.0221
     28 C          -6.8276    3.5965   -7.8691 C.3     1  LIG11      -0.0221
     29 H          -5.2235    0.8760   -2.9908 H       1  LIG11       0.0834
     30 H          -7.7211    3.9891   -1.4718 H       1  LIG11       0.0621
     31 H          -4.8286    3.1651   -3.4484 H       1  LIG11       0.0621
     32 H          -7.3783    0.2097    0.5791 H       1  LIG11       0.0621
     33 H          -5.2158    3.4928    0.8416 H       1  LIG11       0.0621
     34 H          -3.4776   -0.0085    0.1384 H       1  LIG11       0.0524
     35 H          -3.2519    1.3831   -0.9190 H       1  LIG11       0.0524
     36 H          -4.0022   -0.1136   -1.5384 H       1  LIG11       0.0524
     37 H          -9.8694    4.3942   -0.3500 H       1  LIG11       0.0618
     38 H          -3.5680    5.2427   -3.4881 H       1  LIG11       0.0618
     39 H          -9.5453    0.6144    1.6657 H       1  LIG11       0.0618
     40 H          -3.9209    5.5903    0.7782 H       1  LIG11       0.0618
     41 H         -10.7995    2.7139    1.2255 H       1  LIG11       0.0618
     42 H          -3.0918    6.4806   -1.3898 H       1  LIG11       0.0618
     43 H          -5.9056    1.0845   -8.4296 H       1  LIG11       0.0653
     44 H          -5.3545   -1.7506   -5.9606 H       1  LIG11       0.0293
     45 H          -4.4301   -0.9994   -7.2733 H       1  LIG11       0.0293
     46 H          -6.0988   -1.5641   -7.5576 H       1  LIG11       0.0293
     47 H          -7.1988    4.4800   -7.3397 H       1  LIG11       0.0293
     48 H          -7.5544    3.3299   -8.6422 H       1  LIG11       0.0293
     49 H          -5.8773    3.8613   -8.3436 H       1  LIG11       0.0293
@<TRIPOS>BOND
     1     1     7    1
     2     1    16    1
     3     2     8    1
     4     2    23    1
     5     3    15   ar
     6     4    15   ar
     7     5    23   ar
     8     5    24   ar
     9     6    23   ar
    10     6    25   ar
    11     7     8    1
    12     7     9    1
    13     7    10    1
    14     8    15    1
    15     9    11   ar
    16     9    13   ar
    17    10    12   ar
    18    10    14   ar
    19    11    17   ar
    20    12    18   ar
    21    13    19   ar
    22    14    20   ar
    23    17    21   ar
    24    18    22   ar
    25    19    21   ar
    26    20    22   ar
    27    24    26   ar
    28    24    27    1
    29    25    26   ar
    30    25    28    1
    31     8    29    1
    32    11    30    1
    33    12    31    1
    34    13    32    1
    35    14    33    1
    36    16    34    1
    37    16    35    1
    38    16    36    1
    39    17    37    1
    40    18    38    1
    41    19    39    1
    42    20    40    1
    43    21    41    1
    44    22    42    1
    45    26    43    1
    46    27    44    1
    47    27    45    1
    48    27    46    1
    49    28    47    1
    50    28    48    1
    51    28    49    1
@<TRIPOS>MOLECULE
../1EDN/PCA3_17-21.pdb
 47 48 0 0 0
SMALL
GASTEIGER

@<TRIPOS>ATOM
      1  N         -4.2370    0.0490   -1.5930 N.3    17  LEU17      -0.1231
      2  CA        -5.5250   -0.5610   -1.9200 C.3    17  LEU17       0.1693
      3  CB        -5.7360   -1.8160   -1.1010 C.3    17  LEU17       0.0284
      4  CG        -6.9950   -2.5690   -1.5730 C.3    17  LEU17       0.0019
      5  CD1       -6.7530   -3.1800   -3.0080 C.3    17  LEU17       0.0001
      6  CD2       -7.2580   -3.7400   -0.6960 C.3    17  LEU17       0.0001
      7  C         -6.6810    0.4320   -1.9250 C.2    17  LEU17       0.2592
      8  O         -7.3270    0.6200   -2.9560 O.2    17  LEU17      -0.2718
      9  N         -6.9500    1.1080   -0.7900 N.am   18  ASP18      -0.1960
     10  CA        -8.0880    2.0070   -0.5710 C.3    18  ASP18       0.1840
     11  CB        -9.1090    1.3410    0.3760 C.3    18  ASP18       0.1450
     12  CG       -10.1470    2.2990    0.9520 C.2    18  ASP18       0.3671
     13  OD1      -11.0720    2.5310    0.1500 O.co2  18  ASP18      -0.2456
     14  OD2      -10.1960    2.6850    2.1610 O.co2  18  ASP18      -0.2456
     15  C         -7.6280    3.3500    0.0060 C.2    18  ASP18       0.2622
     16  O         -7.9950    4.4650   -0.3580 O.2    18  ASP18      -0.2715
     17  N         -6.8140    3.2050    1.0390 N.am   19  ILE19      -0.1963
     18  CA        -6.1800    4.3790    1.8160 C.3    19  ILE19       0.1727
     19  CB        -5.3140    3.8890    3.0670 C.3    19  ILE19       0.0290
     20  CG2       -4.6600    5.0630    3.8540 C.3    19  ILE19       0.0023
     21  CG1       -6.1440    2.9790    3.9890 C.3    19  ILE19       0.0022
     22  CD1       -5.5170    2.2940    5.2130 C.3    19  ILE19       0.0001
     23  C         -5.2670    5.2520    0.8640 C.2    19  ILE19       0.2616
     24  O         -5.3920    6.4650    0.9090 O.2    19  ILE19      -0.2715
     25  N         -4.4890    4.6060    0.0020 N.am   20  ILE20      -0.1963
     26  CA        -3.9690    5.2910   -1.1850 C.3    20  ILE20       0.1727
     27  CB        -2.4460    5.7340   -1.0120 C.3    20  ILE20       0.0290
     28  CG2       -2.3030    7.0110   -0.1100 C.3    20  ILE20       0.0023
     29  CG1       -1.4300    4.6170   -0.6100 C.3    20  ILE20       0.0022
     30  CD1        0.0800    4.9990   -0.7110 C.3    20  ILE20       0.0001
     31  C         -4.1660    4.3690   -2.4130 C.2    20  ILE20       0.2617
     32  O         -3.9200    3.1710   -2.5010 O.2    20  ILE20      -0.2715
     33  N         -4.6410    5.0460   -3.5090 N.am   21  TRP21      -0.1938
     34  CA        -4.8980    4.4430   -4.8120 C.3    21  TRP21       0.2021
     35  CB        -6.2680    3.7450   -4.8170 C.3    21  TRP21       0.0612
     36  CG        -6.5090    2.9660   -6.0890 C.ar   21  TRP21       0.0007
     37  CD1       -7.0550    3.4090   -7.2190 C.ar   21  TRP21       0.0946
     38  NE1       -7.1560    2.4190   -8.1260 N.ar   21  TRP21      -0.2442
     39  CE2       -6.6880    1.2600   -7.6470 C.ar   21  TRP21       0.0810
     40  CZ2       -6.5320   -0.1050   -8.0600 C.ar   21  TRP21       0.0191
     41  CH2       -5.9630   -1.0770   -7.2340 C.ar   21  TRP21       0.0015
     42  CZ3       -5.4330   -0.7150   -5.9030 C.ar   21  TRP21       0.0001
     43  CE3       -5.5290    0.6400   -5.5430 C.ar   21  TRP21       0.0012
     44  CD2       -6.2440    1.5830   -6.3190 C.ar   21  TRP21       0.0152
     45  C         -4.7460    5.5030   -5.9410 C.2    21  TRP21       0.3845
     46  O         -5.6740    6.3580   -6.0770 O.co2  21  TRP21      -0.2437
     47  OXT       -3.7150    5.4030   -6.6310 O.co2  21  TRP21      -0.2437
@<TRIPOS>BOND
     1    38    39   ar
     2    38    37   ar
     3    40    39   ar
     4    40    41   ar
     5    39    44   ar
     6    41    42   ar
     7    37    36   ar
     8    47    45   ar
     9    44    36   ar
    10    44    43   ar
    11    36    35    1
    12    46    45   ar
    13    45    34    1
    14    42    43   ar
    15    35    34    1
    16    34    33    1
    17    33    31   am
    18     5     4    1
    19     8     7    2
    20    32    31    2
    21    31    26    1
    22     7     2    1
    23     7     9   am
    24     2     1    1
    25     2     3    1
    26     4     3    1
    27     4     6    1
    28    26    27    1
    29    26    25    1
    30    27    29    1
    31    27    28    1
    32     9    10    1
    33    30    29    1
    34    10    15    1
    35    10    11    1
    36    16    15    2
    37    25    23   am
    38    15    17   am
    39    13    12   ar
    40    11    12    1
    41    23    24    2
    42    23    18    1
    43    12    14   ar
    44    17    18    1
    45    18    19    1
    46    19    20    1
    47    19    21    1
    48    21    22    1
