@<TRIPOS>MOLECULE
11672244
 106 111 0 0 0
SMALL
GASTEIGER

@<TRIPOS>ATOM
      1 O          -4.2809    1.9853   -4.6578 O.3     1  LIG11      -0.4607
      2 O          -5.1693   -2.0269    0.5164 O.2     1  LIG11      -0.2968
      3 O          -9.1293    2.8724   -8.7110 O.co2   1  LIG11      -0.5492
      4 O          -8.1233    1.5471  -10.2564 O.co2   1  LIG11      -0.5492
      5 O          -4.1032    4.1935   -5.3170 O.2     1  LIG11      -0.2456
      6 O          -0.9263    7.5521   -0.4610 O.3     1  LIG11      -0.5067
      7 O          -6.1716    4.9298    2.3141 O.2     1  LIG11      -0.2705
      8 O         -10.7208    2.6202    0.7517 O.co2   1  LIG11      -0.5452
      9 O          -9.0878    1.1089    1.2680 O.co2   1  LIG11      -0.5452
     10 N          -5.4941    4.3708    0.1427 N.am    1  LIG11      -0.2815
     11 C          -6.6831    0.0424   -5.4153 C.3     1  LIG11      -0.0160
     12 C          -6.9239    0.6310   -3.9763 C.3     1  LIG11      -0.0256
     13 C          -6.0132    1.1932   -6.3716 C.3     1  LIG11       0.0318
     14 C          -7.2057   -0.4043   -2.7883 C.3     1  LIG11      -0.0243
     15 C          -6.1241   -1.5448   -2.8864 C.3     1  LIG11      -0.0235
     16 C          -5.7689   -1.2067   -5.3453 C.3     1  LIG11      -0.0461
     17 C          -6.8263    2.5052   -6.2851 C.2     1  LIG11      -0.0596
     18 C          -6.5993    3.5204   -7.4299 C.3     1  LIG11      -0.0080
     19 C          -6.1645   -2.2153   -4.2705 C.3     1  LIG11      -0.0483
     20 C          -5.9873    0.6675   -7.8507 C.3     1  LIG11      -0.0392
     21 C          -7.8792    1.8430   -4.0559 C.3     1  LIG11      -0.0306
     22 C          -6.7220    2.8901   -8.8397 C.3     1  LIG11       0.0167
     23 C          -6.0372   -2.5471   -1.6883 C.3     1  LIG11       0.0267
     24 C          -6.9659    0.3266   -1.4303 C.3     1  LIG11      -0.0404
     25 C          -5.7111    1.7236   -8.9211 C.3     1  LIG11      -0.0408
     26 C          -8.0468   -0.4227   -6.0247 C.3     1  LIG11      -0.0584
     27 C          -7.6415    2.7475   -5.2368 C.2     1  LIG11      -0.0835
     28 C          -4.5096    1.5438   -6.0111 C.3     1  LIG11       0.1025
     29 C          -8.6598   -0.9305   -2.7883 C.3     1  LIG11      -0.0590
     30 C          -7.3190    4.8854   -7.3029 C.3     1  LIG11      -0.0405
     31 C          -6.3499    3.9235   -9.9342 C.3     1  LIG11      -0.0412
     32 C          -6.9322   -0.5955   -0.2134 C.3     1  LIG11       0.0069
     33 C          -6.9364    5.8996   -8.4087 C.3     1  LIG11      -0.0343
     34 C          -5.9533   -1.7294   -0.3899 C.2     1  LIG11       0.1392
     35 C          -7.0922    5.2542   -9.7985 C.3     1  LIG11      -0.0470
     36 C          -7.1958   -3.5460   -1.5796 C.3     1  LIG11      -0.0528
     37 C          -4.7314   -3.3790   -1.7984 C.3     1  LIG11      -0.0528
     38 C          -8.1288    2.3780   -9.2979 C.2     1  LIG11       0.0485
     39 C          -7.8757    7.1176   -8.3161 C.3     1  LIG11      -0.0598
     40 C          -5.4935    6.4091   -8.2085 C.3     1  LIG11      -0.0598
     41 C          -4.1518    3.3195   -4.4664 C.2     1  LIG11       0.3320
     42 C          -3.9511    3.5862   -3.0239 C.2     1  LIG11       0.0231
     43 C          -4.2785    4.8037   -2.5637 C.2     1  LIG11      -0.0460
     44 C          -3.7651    5.3494   -1.2989 C.ar    1  LIG11      -0.0001
     45 C          -4.3406    5.1777   -0.0235 C.ar    1  LIG11       0.0411
     46 C          -2.6129    6.1528   -1.4432 C.ar    1  LIG11      -0.0113
     47 C          -3.7223    5.8058    1.0720 C.ar    1  LIG11      -0.0364
     48 C          -2.0343    6.7674   -0.3402 C.ar    1  LIG11       0.1175
     49 C          -2.5793    6.5954    0.9175 C.ar    1  LIG11      -0.0184
     50 C          -6.2530    4.2585    1.2924 C.2     1  LIG11       0.2411
     51 C          -7.2282    3.1552    1.2140 C.2     1  LIG11       0.0021
     52 C          -8.5227    3.3905    0.9653 C.2     1  LIG11      -0.0344
     53 C          -9.5380    2.2559    1.0016 C.2     1  LIG11       0.0647
     54 H          -0.7044    7.6178   -1.4043 H       1  LIG11       0.2921
     55 H          -5.8221    3.8501   -0.6626 H       1  LIG11       0.1551
     56 H          -5.9672    1.0552   -3.6718 H       1  LIG11       0.0315
     57 H          -5.1581   -1.0120   -2.8487 H       1  LIG11       0.0315
     58 H          -4.7363   -0.9156   -5.1327 H       1  LIG11       0.0271
     59 H          -5.7441   -1.7205   -6.3138 H       1  LIG11       0.0271
     60 H          -5.5406    3.7864   -7.3262 H       1  LIG11       0.0355
     61 H          -7.1422   -2.6538   -4.4873 H       1  LIG11       0.0269
     62 H          -5.4476   -3.0388   -4.3314 H       1  LIG11       0.0269
     63 H          -6.9376    0.2050   -8.1240 H       1  LIG11       0.0275
     64 H          -5.2338   -0.1239   -7.9486 H       1  LIG11       0.0275
     65 H          -8.9250    1.5294   -4.1084 H       1  LIG11       0.0310
     66 H          -7.7744    2.4463   -3.1466 H       1  LIG11       0.0310
     67 H          -7.7379    1.0881   -1.2740 H       1  LIG11       0.0275
     68 H          -6.0078    0.8624   -1.4690 H       1  LIG11       0.0275
     69 H          -5.7320    1.2407   -9.9064 H       1  LIG11       0.0275
     70 H          -4.6865    2.1005   -8.8143 H       1  LIG11       0.0275
     71 H          -8.6599   -0.9798   -5.3212 H       1  LIG11       0.0235
     72 H          -7.9027   -1.1023   -6.8716 H       1  LIG11       0.0235
     73 H          -8.6583    0.4131   -6.3775 H       1  LIG11       0.0235
     74 H          -8.2280    3.6623   -5.2104 H       1  LIG11       0.0572
     75 H          -3.8775    0.6603   -6.1495 H       1  LIG11       0.0706
     76 H          -4.0872    2.2734   -6.7101 H       1  LIG11       0.0706
     77 H          -8.8041   -1.7901   -3.4443 H       1  LIG11       0.0235
     78 H          -9.3819   -0.1653   -3.0787 H       1  LIG11       0.0235
     79 H          -8.9921   -1.2506   -1.7990 H       1  LIG11       0.0235
     80 H          -7.0797    5.3315   -6.3275 H       1  LIG11       0.0276
     81 H          -8.4051    4.7393   -7.3058 H       1  LIG11       0.0276
     82 H          -6.5420    3.5212  -10.9379 H       1  LIG11       0.0274
     83 H          -5.2703    4.1178   -9.9053 H       1  LIG11       0.0274
     84 H          -7.9124   -1.0202    0.0166 H       1  LIG11       0.0342
     85 H          -6.6176   -0.0192    0.6628 H       1  LIG11       0.0342
     86 H          -8.1559    5.0942  -10.0158 H       1  LIG11       0.0271
     87 H          -6.7294    5.9410  -10.5742 H       1  LIG11       0.0271
     88 H          -8.1373   -3.0826   -1.2843 H       1  LIG11       0.0239
     89 H          -6.9864   -4.2961   -0.8065 H       1  LIG11       0.0239
     90 H          -7.3557   -4.0839   -2.5193 H       1  LIG11       0.0239
     91 H          -3.8555   -2.7302   -1.9137 H       1  LIG11       0.0239
     92 H          -4.7550   -4.0768   -2.6405 H       1  LIG11       0.0239
     93 H          -4.5646   -3.9864   -0.9004 H       1  LIG11       0.0239
     94 H          -8.9226    6.8244   -8.4521 H       1  LIG11       0.0235
     95 H          -7.6367    7.8606   -9.0856 H       1  LIG11       0.0235
     96 H          -7.7914    7.6084   -7.3399 H       1  LIG11       0.0235
     97 H          -4.7489    5.6113   -8.2770 H       1  LIG11       0.0235
     98 H          -5.3764    6.8801   -7.2259 H       1  LIG11       0.0235
     99 H          -5.2345    7.1578   -8.9663 H       1  LIG11       0.0235
    100 H          -3.4181    2.8441   -2.4454 H       1  LIG11       0.0689
    101 H          -4.7805    5.5262   -3.2073 H       1  LIG11       0.0626
    102 H          -2.1830    6.2938   -2.4321 H       1  LIG11       0.0660
    103 H          -4.1038    5.6897    2.0819 H       1  LIG11       0.0637
    104 H          -2.1285    7.0704    1.7835 H       1  LIG11       0.0655
    105 H          -6.8542    2.1654    1.4441 H       1  LIG11       0.0670
    106 H          -8.8949    4.3915    0.7772 H       1  LIG11       0.0637
@<TRIPOS>BOND
     1     1    41    1
     2     1    28    1
     3     2    34    2
     4     3    38   ar
     5     4    38   ar
     6     5    41    2
     7     6    48    1
     8     7    50    2
     9     8    53   ar
    10     9    53   ar
    11    10    45    1
    12    10    50   am
    13    11    16    1
    14    11    12    1
    15    11    26    1
    16    11    13    1
    17    12    14    1
    18    13    20    1
    19    13    17    1
    20    13    28    1
    21    14    15    1
    22    14    24    1
    23    14    29    1
    24    15    19    1
    25    15    23    1
    26    16    19    1
    27    17    18    1
    28    17    27    2
    29    18    30    1
    30    18    22    1
    31    20    25    1
    32    21    27    1
    33    21    12    1
    34    22    31    1
    35    22    25    1
    36    22    38    1
    37    23    34    1
    38    23    37    1
    39    23    36    1
    40    24    32    1
    41    30    33    1
    42    31    35    1
    43    32    34    1
    44    33    35    1
    45    33    40    1
    46    33    39    1
    47    41    42    1
    48    42    43    2
    49    43    44    1
    50    44    46   ar
    51    44    45   ar
    52    45    47   ar
    53    46    48   ar
    54    47    49   ar
    55    48    49   ar
    56    50    51    1
    57    51    52    2
    58    52    53    1
    59     6    54    1
    60    10    55    1
    61    12    56    1
    62    15    57    1
    63    16    58    1
    64    16    59    1
    65    18    60    1
    66    19    61    1
    67    19    62    1
    68    20    63    1
    69    20    64    1
    70    21    65    1
    71    21    66    1
    72    24    67    1
    73    24    68    1
    74    25    69    1
    75    25    70    1
    76    26    71    1
    77    26    72    1
    78    26    73    1
    79    27    74    1
    80    28    75    1
    81    28    76    1
    82    29    77    1
    83    29    78    1
    84    29    79    1
    85    30    80    1
    86    30    81    1
    87    31    82    1
    88    31    83    1
    89    32    84    1
    90    32    85    1
    91    35    86    1
    92    35    87    1
    93    36    88    1
    94    36    89    1
    95    36    90    1
    96    37    91    1
    97    37    92    1
    98    37    93    1
    99    39    94    1
   100    39    95    1
   101    39    96    1
   102    40    97    1
   103    40    98    1
   104    40    99    1
   105    42   100    1
   106    43   101    1
   107    46   102    1
   108    47   103    1
   109    49   104    1
   110    51   105    1
   111    52   106    1
@<TRIPOS>MOLECULE
../1EDN/PCA3_17-21.pdb
 47 48 0 0 0
SMALL
GASTEIGER

@<TRIPOS>ATOM
      1  N         -4.2370    0.0490   -1.5930 N.3    17  LEU17      -0.1231
      2  CA        -5.5250   -0.5610   -1.9200 C.3    17  LEU17       0.1693
      3  CB        -5.7360   -1.8160   -1.1010 C.3    17  LEU17       0.0284
      4  CG        -6.9950   -2.5690   -1.5730 C.3    17  LEU17       0.0019
      5  CD1       -6.7530   -3.1800   -3.0080 C.3    17  LEU17       0.0001
      6  CD2       -7.2580   -3.7400   -0.6960 C.3    17  LEU17       0.0001
      7  C         -6.6810    0.4320   -1.9250 C.2    17  LEU17       0.2592
      8  O         -7.3270    0.6200   -2.9560 O.2    17  LEU17      -0.2718
      9  N         -6.9500    1.1080   -0.7900 N.am   18  ASP18      -0.1960
     10  CA        -8.0880    2.0070   -0.5710 C.3    18  ASP18       0.1840
     11  CB        -9.1090    1.3410    0.3760 C.3    18  ASP18       0.1450
     12  CG       -10.1470    2.2990    0.9520 C.2    18  ASP18       0.3671
     13  OD1      -11.0720    2.5310    0.1500 O.co2  18  ASP18      -0.2456
     14  OD2      -10.1960    2.6850    2.1610 O.co2  18  ASP18      -0.2456
     15  C         -7.6280    3.3500    0.0060 C.2    18  ASP18       0.2622
     16  O         -7.9950    4.4650   -0.3580 O.2    18  ASP18      -0.2715
     17  N         -6.8140    3.2050    1.0390 N.am   19  ILE19      -0.1963
     18  CA        -6.1800    4.3790    1.8160 C.3    19  ILE19       0.1727
     19  CB        -5.3140    3.8890    3.0670 C.3    19  ILE19       0.0290
     20  CG2       -4.6600    5.0630    3.8540 C.3    19  ILE19       0.0023
     21  CG1       -6.1440    2.9790    3.9890 C.3    19  ILE19       0.0022
     22  CD1       -5.5170    2.2940    5.2130 C.3    19  ILE19       0.0001
     23  C         -5.2670    5.2520    0.8640 C.2    19  ILE19       0.2616
     24  O         -5.3920    6.4650    0.9090 O.2    19  ILE19      -0.2715
     25  N         -4.4890    4.6060    0.0020 N.am   20  ILE20      -0.1963
     26  CA        -3.9690    5.2910   -1.1850 C.3    20  ILE20       0.1727
     27  CB        -2.4460    5.7340   -1.0120 C.3    20  ILE20       0.0290
     28  CG2       -2.3030    7.0110   -0.1100 C.3    20  ILE20       0.0023
     29  CG1       -1.4300    4.6170   -0.6100 C.3    20  ILE20       0.0022
     30  CD1        0.0800    4.9990   -0.7110 C.3    20  ILE20       0.0001
     31  C         -4.1660    4.3690   -2.4130 C.2    20  ILE20       0.2617
     32  O         -3.9200    3.1710   -2.5010 O.2    20  ILE20      -0.2715
     33  N         -4.6410    5.0460   -3.5090 N.am   21  TRP21      -0.1938
     34  CA        -4.8980    4.4430   -4.8120 C.3    21  TRP21       0.2021
     35  CB        -6.2680    3.7450   -4.8170 C.3    21  TRP21       0.0612
     36  CG        -6.5090    2.9660   -6.0890 C.ar   21  TRP21       0.0007
     37  CD1       -7.0550    3.4090   -7.2190 C.ar   21  TRP21       0.0946
     38  NE1       -7.1560    2.4190   -8.1260 N.ar   21  TRP21      -0.2442
     39  CE2       -6.6880    1.2600   -7.6470 C.ar   21  TRP21       0.0810
     40  CZ2       -6.5320   -0.1050   -8.0600 C.ar   21  TRP21       0.0191
     41  CH2       -5.9630   -1.0770   -7.2340 C.ar   21  TRP21       0.0015
     42  CZ3       -5.4330   -0.7150   -5.9030 C.ar   21  TRP21       0.0001
     43  CE3       -5.5290    0.6400   -5.5430 C.ar   21  TRP21       0.0012
     44  CD2       -6.2440    1.5830   -6.3190 C.ar   21  TRP21       0.0152
     45  C         -4.7460    5.5030   -5.9410 C.2    21  TRP21       0.3845
     46  O         -5.6740    6.3580   -6.0770 O.co2  21  TRP21      -0.2437
     47  OXT       -3.7150    5.4030   -6.6310 O.co2  21  TRP21      -0.2437
@<TRIPOS>BOND
     1    38    39   ar
     2    38    37   ar
     3    40    39   ar
     4    40    41   ar
     5    39    44   ar
     6    41    42   ar
     7    37    36   ar
     8    47    45   ar
     9    44    36   ar
    10    44    43   ar
    11    36    35    1
    12    46    45   ar
    13    45    34    1
    14    42    43   ar
    15    35    34    1
    16    34    33    1
    17    33    31   am
    18     5     4    1
    19     8     7    2
    20    32    31    2
    21    31    26    1
    22     7     2    1
    23     7     9   am
    24     2     1    1
    25     2     3    1
    26     4     3    1
    27     4     6    1
    28    26    27    1
    29    26    25    1
    30    27    29    1
    31    27    28    1
    32     9    10    1
    33    30    29    1
    34    10    15    1
    35    10    11    1
    36    16    15    2
    37    25    23   am
    38    15    17   am
    39    13    12   ar
    40    11    12    1
    41    23    24    2
    42    23    18    1
    43    12    14   ar
    44    17    18    1
    45    18    19    1
    46    19    20    1
    47    19    21    1
    48    21    22    1
