@<TRIPOS>MOLECULE
178103
 66 70 0 0 0
SMALL
GASTEIGER

@<TRIPOS>ATOM
      1 O          -4.0980    4.2811   -0.4035 O.co2   1  LIG11      -0.5495
      2 O          -5.4755    5.7160   -1.5056 O.co2   1  LIG11      -0.5495
      3 O          -6.1110   -2.6375   -1.6267 O.3     1  LIG11      -0.4920
      4 O          -6.3358    3.4276    1.7861 O.3     1  LIG11      -0.4893
      5 O          -7.0754    2.4790   -7.4484 O.3     1  LIG11      -0.4526
      6 O          -6.2359    4.6478   -8.0933 O.3     1  LIG11      -0.4526
      7 O         -11.1754    2.6558    1.8341 O.3     1  LIG11      -0.4950
      8 O          -3.8910    4.1493    2.7922 O.3     1  LIG11      -0.3917
      9 C          -5.8335    3.4014   -1.7896 C.3     1  LIG11       0.0203
     10 C          -6.0811    2.3242   -0.7153 C.3     1  LIG11       0.0218
     11 C          -4.9608    2.7619   -2.9007 C.3     1  LIG11       0.0184
     12 C          -5.8596    1.0408   -1.4796 C.ar    1  LIG11      -0.0320
     13 C          -5.1727    1.2772   -2.6699 C.ar    1  LIG11      -0.0353
     14 C          -7.4392    2.4596   -0.0342 C.ar    1  LIG11       0.0025
     15 C          -5.3381    3.2782   -4.2932 C.ar    1  LIG11      -0.0356
     16 C          -5.0646    4.5669   -1.1680 C.2     1  LIG11       0.0466
     17 C          -6.1573   -0.2518   -1.0594 C.ar    1  LIG11      -0.0159
     18 C          -4.7275    0.2079   -3.4377 C.ar    1  LIG11      -0.0542
     19 C          -7.5232    3.0204    1.2549 C.ar    1  LIG11       0.1278
     20 C          -5.8032   -1.3251   -1.8761 C.ar    1  LIG11       0.1208
     21 C          -6.1339    2.5492   -5.1994 C.ar    1  LIG11      -0.0124
     22 C          -5.0627   -1.0927   -3.0447 C.ar    1  LIG11      -0.0196
     23 C          -4.8747    4.5585   -4.6849 C.ar    1  LIG11      -0.0543
     24 C          -8.6229    2.0584   -0.6708 C.ar    1  LIG11      -0.0510
     25 C          -6.3710    3.0817   -6.4514 C.ar    1  LIG11       0.1665
     26 C          -5.1536    5.0869   -5.9525 C.ar    1  LIG11      -0.0159
     27 C          -8.7523    3.0979    1.9178 C.ar    1  LIG11       0.0221
     28 C          -9.8484    2.1503   -0.0095 C.ar    1  LIG11      -0.0194
     29 C          -5.8916    4.3150   -6.8197 C.ar    1  LIG11       0.1662
     30 C          -9.9180    2.6529    1.2902 C.ar    1  LIG11       0.1236
     31 C          -7.1745   -2.8535   -0.6960 C.3     1  LIG11       0.0893
     32 C          -6.9587    3.4660   -8.4915 C.3     1  LIG11       0.2332
     33 C          -6.3205    4.3179    2.8948 C.3     1  LIG11       0.1126
     34 C          -7.6937   -4.2810   -0.8510 C.3     1  LIG11      -0.0215
     35 C          -4.9843    5.0608    2.8903 C.3     1  LIG11       0.0783
     36 C         -11.2864    3.0973    3.1806 C.3     1  LIG11       0.0788
     37 C          -6.6421   -5.3264   -0.5134 C.3     1  LIG11      -0.0622
     38 H          -3.8666    3.9194    1.8304 H       1  LIG11       0.2095
     39 H          -6.7848    3.7656   -2.2034 H       1  LIG11       0.0379
     40 H          -5.2937    2.3061    0.0474 H       1  LIG11       0.0405
     41 H          -3.8907    2.9580   -2.7445 H       1  LIG11       0.0404
     42 H          -6.6530   -0.3879   -0.1054 H       1  LIG11       0.0657
     43 H          -4.1492    0.3771   -4.3407 H       1  LIG11       0.0622
     44 H          -6.5551    1.5841   -4.9466 H       1  LIG11       0.0658
     45 H          -4.7522   -1.9342   -3.6574 H       1  LIG11       0.0654
     46 H          -4.3030    5.1618   -3.9782 H       1  LIG11       0.0622
     47 H          -8.5926    1.6652   -1.6843 H       1  LIG11       0.0623
     48 H          -4.8008    6.0718   -6.2323 H       1  LIG11       0.0655
     49 H          -8.7853    3.4941    2.9232 H       1  LIG11       0.0691
     50 H         -10.7531    1.8209   -0.5125 H       1  LIG11       0.0654
     51 H          -6.8081   -2.6972    0.3256 H       1  LIG11       0.0696
     52 H          -8.0111   -2.1715   -0.8951 H       1  LIG11       0.0696
     53 H          -6.4416    3.0120   -9.3462 H       1  LIG11       0.1166
     54 H          -7.9650    3.7597   -8.8108 H       1  LIG11       0.1166
     55 H          -7.1286    5.0565    2.8466 H       1  LIG11       0.0720
     56 H          -6.4143    3.7221    3.8094 H       1  LIG11       0.0720
     57 H          -8.5640   -4.4212   -0.2004 H       1  LIG11       0.0295
     58 H          -8.0217   -4.4389   -1.8849 H       1  LIG11       0.0295
     59 H          -4.8711    5.6345    3.8151 H       1  LIG11       0.0591
     60 H          -4.9219    5.7527    2.0453 H       1  LIG11       0.0591
     61 H         -12.3348    3.0004    3.4782 H       1  LIG11       0.0660
     62 H         -10.6921    2.4708    3.8542 H       1  LIG11       0.0660
     63 H         -11.0100    4.1527    3.2732 H       1  LIG11       0.0660
     64 H          -6.2899   -5.2086    0.5163 H       1  LIG11       0.0231
     65 H          -7.0657   -6.3308   -0.6146 H       1  LIG11       0.0231
     66 H          -5.7799   -5.2555   -1.1836 H       1  LIG11       0.0231
@<TRIPOS>BOND
     1     1    16   ar
     2     2    16   ar
     3     3    20    1
     4     3    31    1
     5     4    19    1
     6     4    33    1
     7     5    25    1
     8     5    32    1
     9     6    29    1
    10     6    32    1
    11     7    30    1
    12     7    36    1
    13     8    35    1
    14     9    10    1
    15     9    11    1
    16     9    16    1
    17    10    12    1
    18    10    14    1
    19    11    13    1
    20    11    15    1
    21    12    13   ar
    22    12    17   ar
    23    13    18   ar
    24    14    19   ar
    25    14    24   ar
    26    15    21   ar
    27    15    23   ar
    28    17    20   ar
    29    18    22   ar
    30    19    27   ar
    31    20    22   ar
    32    21    25   ar
    33    23    26   ar
    34    24    28   ar
    35    25    29   ar
    36    26    29   ar
    37    27    30   ar
    38    28    30   ar
    39    31    34    1
    40    33    35    1
    41    34    37    1
    42     8    38    1
    43     9    39    1
    44    10    40    1
    45    11    41    1
    46    17    42    1
    47    18    43    1
    48    21    44    1
    49    22    45    1
    50    23    46    1
    51    24    47    1
    52    26    48    1
    53    27    49    1
    54    28    50    1
    55    31    51    1
    56    31    52    1
    57    32    53    1
    58    32    54    1
    59    33    55    1
    60    33    56    1
    61    34    57    1
    62    34    58    1
    63    35    59    1
    64    35    60    1
    65    36    61    1
    66    36    62    1
    67    36    63    1
    68    37    64    1
    69    37    65    1
    70    37    66    1
@<TRIPOS>MOLECULE
../1EDN/PCA3_17-21.pdb
 47 48 0 0 0
SMALL
GASTEIGER

@<TRIPOS>ATOM
      1  N         -4.2370    0.0490   -1.5930 N.3    17  LEU17      -0.1231
      2  CA        -5.5250   -0.5610   -1.9200 C.3    17  LEU17       0.1693
      3  CB        -5.7360   -1.8160   -1.1010 C.3    17  LEU17       0.0284
      4  CG        -6.9950   -2.5690   -1.5730 C.3    17  LEU17       0.0019
      5  CD1       -6.7530   -3.1800   -3.0080 C.3    17  LEU17       0.0001
      6  CD2       -7.2580   -3.7400   -0.6960 C.3    17  LEU17       0.0001
      7  C         -6.6810    0.4320   -1.9250 C.2    17  LEU17       0.2592
      8  O         -7.3270    0.6200   -2.9560 O.2    17  LEU17      -0.2718
      9  N         -6.9500    1.1080   -0.7900 N.am   18  ASP18      -0.1960
     10  CA        -8.0880    2.0070   -0.5710 C.3    18  ASP18       0.1840
     11  CB        -9.1090    1.3410    0.3760 C.3    18  ASP18       0.1450
     12  CG       -10.1470    2.2990    0.9520 C.2    18  ASP18       0.3671
     13  OD1      -11.0720    2.5310    0.1500 O.co2  18  ASP18      -0.2456
     14  OD2      -10.1960    2.6850    2.1610 O.co2  18  ASP18      -0.2456
     15  C         -7.6280    3.3500    0.0060 C.2    18  ASP18       0.2622
     16  O         -7.9950    4.4650   -0.3580 O.2    18  ASP18      -0.2715
     17  N         -6.8140    3.2050    1.0390 N.am   19  ILE19      -0.1963
     18  CA        -6.1800    4.3790    1.8160 C.3    19  ILE19       0.1727
     19  CB        -5.3140    3.8890    3.0670 C.3    19  ILE19       0.0290
     20  CG2       -4.6600    5.0630    3.8540 C.3    19  ILE19       0.0023
     21  CG1       -6.1440    2.9790    3.9890 C.3    19  ILE19       0.0022
     22  CD1       -5.5170    2.2940    5.2130 C.3    19  ILE19       0.0001
     23  C         -5.2670    5.2520    0.8640 C.2    19  ILE19       0.2616
     24  O         -5.3920    6.4650    0.9090 O.2    19  ILE19      -0.2715
     25  N         -4.4890    4.6060    0.0020 N.am   20  ILE20      -0.1963
     26  CA        -3.9690    5.2910   -1.1850 C.3    20  ILE20       0.1727
     27  CB        -2.4460    5.7340   -1.0120 C.3    20  ILE20       0.0290
     28  CG2       -2.3030    7.0110   -0.1100 C.3    20  ILE20       0.0023
     29  CG1       -1.4300    4.6170   -0.6100 C.3    20  ILE20       0.0022
     30  CD1        0.0800    4.9990   -0.7110 C.3    20  ILE20       0.0001
     31  C         -4.1660    4.3690   -2.4130 C.2    20  ILE20       0.2617
     32  O         -3.9200    3.1710   -2.5010 O.2    20  ILE20      -0.2715
     33  N         -4.6410    5.0460   -3.5090 N.am   21  TRP21      -0.1938
     34  CA        -4.8980    4.4430   -4.8120 C.3    21  TRP21       0.2021
     35  CB        -6.2680    3.7450   -4.8170 C.3    21  TRP21       0.0612
     36  CG        -6.5090    2.9660   -6.0890 C.ar   21  TRP21       0.0007
     37  CD1       -7.0550    3.4090   -7.2190 C.ar   21  TRP21       0.0946
     38  NE1       -7.1560    2.4190   -8.1260 N.ar   21  TRP21      -0.2442
     39  CE2       -6.6880    1.2600   -7.6470 C.ar   21  TRP21       0.0810
     40  CZ2       -6.5320   -0.1050   -8.0600 C.ar   21  TRP21       0.0191
     41  CH2       -5.9630   -1.0770   -7.2340 C.ar   21  TRP21       0.0015
     42  CZ3       -5.4330   -0.7150   -5.9030 C.ar   21  TRP21       0.0001
     43  CE3       -5.5290    0.6400   -5.5430 C.ar   21  TRP21       0.0012
     44  CD2       -6.2440    1.5830   -6.3190 C.ar   21  TRP21       0.0152
     45  C         -4.7460    5.5030   -5.9410 C.2    21  TRP21       0.3845
     46  O         -5.6740    6.3580   -6.0770 O.co2  21  TRP21      -0.2437
     47  OXT       -3.7150    5.4030   -6.6310 O.co2  21  TRP21      -0.2437
@<TRIPOS>BOND
     1    38    39   ar
     2    38    37   ar
     3    40    39   ar
     4    40    41   ar
     5    39    44   ar
     6    41    42   ar
     7    37    36   ar
     8    47    45   ar
     9    44    36   ar
    10    44    43   ar
    11    36    35    1
    12    46    45   ar
    13    45    34    1
    14    42    43   ar
    15    35    34    1
    16    34    33    1
    17    33    31   am
    18     5     4    1
    19     8     7    2
    20    32    31    2
    21    31    26    1
    22     7     2    1
    23     7     9   am
    24     2     1    1
    25     2     3    1
    26     4     3    1
    27     4     6    1
    28    26    27    1
    29    26    25    1
    30    27    29    1
    31    27    28    1
    32     9    10    1
    33    30    29    1
    34    10    15    1
    35    10    11    1
    36    16    15    2
    37    25    23   am
    38    15    17   am
    39    13    12   ar
    40    11    12    1
    41    23    24    2
    42    23    18    1
    43    12    14   ar
    44    17    18    1
    45    18    19    1
    46    19    20    1
    47    19    21    1
    48    21    22    1
