@<TRIPOS>MOLECULE
6433095
 64 68 0 0 0
SMALL
GASTEIGER

@<TRIPOS>ATOM
      1 S          -5.8149    0.7832    0.6199 S.O2    1  LIG11       0.0908
      2 O          -4.8543    4.0671    1.4618 O.3     1  LIG11      -0.4435
      3 O          -3.2611    5.5974   -0.0332 O.3     1  LIG11      -0.4715
      4 O          -6.5003    0.4794    1.8582 O.2     1  LIG11      -0.1484
      5 O          -4.3805    0.9993    0.5808 O.2     1  LIG11      -0.1484
      6 O          -4.6357    3.3353    4.1919 O.3     1  LIG11      -0.4914
      7 O          -0.3766    5.5698   -0.8423 O.3     1  LIG11      -0.3917
      8 N          -6.6180    2.1366   -0.0023 N.pl3   1  LIG11      -0.1950
      9 N          -5.8903    3.1142   -1.9460 N.ar    1  LIG11      -0.2073
     10 N          -4.2948    4.8803   -2.0143 N.ar    1  LIG11      -0.1899
     11 N          -7.0198   -1.4703   -0.1548 N.ar    1  LIG11      -0.2351
     12 N          -5.4995    4.3683   -6.8584 N.ar    1  LIG11      -0.2552
     13 N          -5.9474    1.9714   -8.3958 N.ar    1  LIG11      -0.5621
     14 N          -6.8220    0.9503   -6.5772 N.ar    1  LIG11      -0.1535
     15 N          -6.4546    0.7596   -8.6427 N.ar    1  LIG11      -0.3597
     16 N          -6.9845    0.1174   -7.5955 N.ar    1  LIG11      -0.0878
     17 C          -5.7931    3.1247   -0.6031 C.ar    1  LIG11       0.1882
     18 C          -4.9951    4.0028    0.1087 C.ar    1  LIG11       0.2307
     19 C          -4.2065    4.8204   -0.6745 C.ar    1  LIG11       0.2641
     20 C          -5.1539    4.0289   -2.5990 C.ar    1  LIG11       0.1659
     21 C          -6.2032   -0.4770   -0.5918 C.ar    1  LIG11       0.1969
     22 C          -5.2965    4.1364   -4.0588 C.ar    1  LIG11       0.0227
     23 C          -5.6269   -0.4209   -1.8518 C.ar    1  LIG11      -0.0160
     24 C          -5.9516    4.1872    2.2821 C.ar    1  LIG11       0.1702
     25 C          -5.7444    3.0635   -4.8435 C.ar    1  LIG11      -0.0252
     26 C          -6.7444   -2.5040   -2.3288 C.ar    1  LIG11      -0.0322
     27 C          -5.9151   -1.4545   -2.7366 C.ar    1  LIG11      -0.0541
     28 C          -4.9730    5.3300   -4.7227 C.ar    1  LIG11      -0.0328
     29 C          -2.5938    6.5691   -0.8481 C.3     1  LIG11       0.1143
     30 C          -5.8147    3.2068   -6.2285 C.ar    1  LIG11       0.0708
     31 C          -7.2653   -2.4610   -1.0368 C.ar    1  LIG11       0.0327
     32 C          -5.8015    3.7651    3.6119 C.ar    1  LIG11       0.1621
     33 C          -7.1903    4.6904    1.8562 C.ar    1  LIG11      -0.0157
     34 C          -5.0972    5.4007   -6.0972 C.ar    1  LIG11       0.0289
     35 C          -7.0517   -3.6565   -3.2320 C.3     1  LIG11      -0.0383
     36 C          -1.4502    5.9856   -1.6835 C.3     1  LIG11       0.0783
     37 C          -6.9210    3.7041    4.4461 C.ar    1  LIG11      -0.0163
     38 C          -8.3002    4.6366    2.7021 C.ar    1  LIG11      -0.0581
     39 C          -8.1698    4.1235    3.9895 C.ar    1  LIG11      -0.0581
     40 C          -6.1968    2.0756   -7.0750 C.ar    1  LIG11       0.0207
     41 C          -3.4668    4.0728    3.8373 C.3     1  LIG11       0.0790
     42 H           0.2721    5.1206   -1.4117 H       1  LIG11       0.2095
     43 H          -7.2647    2.4589    0.7149 H       1  LIG11       0.1754
     44 H          -6.4286    0.3431   -9.5693 H       1  LIG11       0.1651
     45 H          -4.9705    0.3934   -2.1360 H       1  LIG11       0.0653
     46 H          -6.0057    2.1162   -4.3780 H       1  LIG11       0.0646
     47 H          -5.4858   -1.4426   -3.7360 H       1  LIG11       0.0622
     48 H          -4.6299    6.2030   -4.1742 H       1  LIG11       0.0640
     49 H          -2.1737    7.2999   -0.1473 H       1  LIG11       0.0720
     50 H          -3.3132    7.1092   -1.4750 H       1  LIG11       0.0720
     51 H          -7.9095   -3.2535   -0.6629 H       1  LIG11       0.0833
     52 H          -7.3250    5.1004    0.8593 H       1  LIG11       0.0655
     53 H          -4.8635    6.3144   -6.6365 H       1  LIG11       0.0830
     54 H          -6.6122   -3.5148   -4.2246 H       1  LIG11       0.0278
     55 H          -8.1337   -3.7637   -3.3567 H       1  LIG11       0.0278
     56 H          -6.6440   -4.5818   -2.8121 H       1  LIG11       0.0278
     57 H          -1.7649    5.1231   -2.2759 H       1  LIG11       0.0591
     58 H          -1.0601    6.7555   -2.3571 H       1  LIG11       0.0591
     59 H          -6.8145    3.3259    5.4601 H       1  LIG11       0.0655
     60 H          -9.2708    4.9822    2.3537 H       1  LIG11       0.0619
     61 H          -9.0347    4.0591    4.6450 H       1  LIG11       0.0619
     62 H          -2.7602    3.9989    4.6697 H       1  LIG11       0.0660
     63 H          -3.6735    5.1373    3.6749 H       1  LIG11       0.0660
     64 H          -2.9860    3.6273    2.9617 H       1  LIG11       0.0660
@<TRIPOS>BOND
     1     1     4    2
     2     1     5    2
     3     1     8    1
     4     1    21    1
     5     2    18    1
     6     2    24    1
     7     3    19    1
     8     3    29    1
     9     6    32    1
    10     6    41    1
    11     7    36    1
    12     8    17    1
    13     9    17   ar
    14     9    20   ar
    15    10    19   ar
    16    10    20   ar
    17    11    21   ar
    18    11    31   ar
    19    12    30   ar
    20    12    34   ar
    21    13    15   ar
    22    13    40   ar
    23    14    16   ar
    24    14    40   ar
    25    15    16   ar
    26    17    18   ar
    27    18    19   ar
    28    20    22    1
    29    21    23   ar
    30    22    25   ar
    31    22    28   ar
    32    23    27   ar
    33    24    32   ar
    34    24    33   ar
    35    25    30   ar
    36    26    27   ar
    37    26    31   ar
    38    26    35    1
    39    28    34   ar
    40    29    36    1
    41    30    40    1
    42    32    37   ar
    43    33    38   ar
    44    37    39   ar
    45    38    39   ar
    46     7    42    1
    47     8    43    1
    48    15    44    1
    49    23    45    1
    50    25    46    1
    51    27    47    1
    52    28    48    1
    53    29    49    1
    54    29    50    1
    55    31    51    1
    56    33    52    1
    57    34    53    1
    58    35    54    1
    59    35    55    1
    60    35    56    1
    61    36    57    1
    62    36    58    1
    63    37    59    1
    64    38    60    1
    65    39    61    1
    66    41    62    1
    67    41    63    1
    68    41    64    1
@<TRIPOS>MOLECULE
../1EDN/PCA3_17-21.pdb
 47 48 0 0 0
SMALL
GASTEIGER

@<TRIPOS>ATOM
      1  N         -4.2370    0.0490   -1.5930 N.3    17  LEU17      -0.1231
      2  CA        -5.5250   -0.5610   -1.9200 C.3    17  LEU17       0.1693
      3  CB        -5.7360   -1.8160   -1.1010 C.3    17  LEU17       0.0284
      4  CG        -6.9950   -2.5690   -1.5730 C.3    17  LEU17       0.0019
      5  CD1       -6.7530   -3.1800   -3.0080 C.3    17  LEU17       0.0001
      6  CD2       -7.2580   -3.7400   -0.6960 C.3    17  LEU17       0.0001
      7  C         -6.6810    0.4320   -1.9250 C.2    17  LEU17       0.2592
      8  O         -7.3270    0.6200   -2.9560 O.2    17  LEU17      -0.2718
      9  N         -6.9500    1.1080   -0.7900 N.am   18  ASP18      -0.1960
     10  CA        -8.0880    2.0070   -0.5710 C.3    18  ASP18       0.1840
     11  CB        -9.1090    1.3410    0.3760 C.3    18  ASP18       0.1450
     12  CG       -10.1470    2.2990    0.9520 C.2    18  ASP18       0.3671
     13  OD1      -11.0720    2.5310    0.1500 O.co2  18  ASP18      -0.2456
     14  OD2      -10.1960    2.6850    2.1610 O.co2  18  ASP18      -0.2456
     15  C         -7.6280    3.3500    0.0060 C.2    18  ASP18       0.2622
     16  O         -7.9950    4.4650   -0.3580 O.2    18  ASP18      -0.2715
     17  N         -6.8140    3.2050    1.0390 N.am   19  ILE19      -0.1963
     18  CA        -6.1800    4.3790    1.8160 C.3    19  ILE19       0.1727
     19  CB        -5.3140    3.8890    3.0670 C.3    19  ILE19       0.0290
     20  CG2       -4.6600    5.0630    3.8540 C.3    19  ILE19       0.0023
     21  CG1       -6.1440    2.9790    3.9890 C.3    19  ILE19       0.0022
     22  CD1       -5.5170    2.2940    5.2130 C.3    19  ILE19       0.0001
     23  C         -5.2670    5.2520    0.8640 C.2    19  ILE19       0.2616
     24  O         -5.3920    6.4650    0.9090 O.2    19  ILE19      -0.2715
     25  N         -4.4890    4.6060    0.0020 N.am   20  ILE20      -0.1963
     26  CA        -3.9690    5.2910   -1.1850 C.3    20  ILE20       0.1727
     27  CB        -2.4460    5.7340   -1.0120 C.3    20  ILE20       0.0290
     28  CG2       -2.3030    7.0110   -0.1100 C.3    20  ILE20       0.0023
     29  CG1       -1.4300    4.6170   -0.6100 C.3    20  ILE20       0.0022
     30  CD1        0.0800    4.9990   -0.7110 C.3    20  ILE20       0.0001
     31  C         -4.1660    4.3690   -2.4130 C.2    20  ILE20       0.2617
     32  O         -3.9200    3.1710   -2.5010 O.2    20  ILE20      -0.2715
     33  N         -4.6410    5.0460   -3.5090 N.am   21  TRP21      -0.1938
     34  CA        -4.8980    4.4430   -4.8120 C.3    21  TRP21       0.2021
     35  CB        -6.2680    3.7450   -4.8170 C.3    21  TRP21       0.0612
     36  CG        -6.5090    2.9660   -6.0890 C.ar   21  TRP21       0.0007
     37  CD1       -7.0550    3.4090   -7.2190 C.ar   21  TRP21       0.0946
     38  NE1       -7.1560    2.4190   -8.1260 N.ar   21  TRP21      -0.2442
     39  CE2       -6.6880    1.2600   -7.6470 C.ar   21  TRP21       0.0810
     40  CZ2       -6.5320   -0.1050   -8.0600 C.ar   21  TRP21       0.0191
     41  CH2       -5.9630   -1.0770   -7.2340 C.ar   21  TRP21       0.0015
     42  CZ3       -5.4330   -0.7150   -5.9030 C.ar   21  TRP21       0.0001
     43  CE3       -5.5290    0.6400   -5.5430 C.ar   21  TRP21       0.0012
     44  CD2       -6.2440    1.5830   -6.3190 C.ar   21  TRP21       0.0152
     45  C         -4.7460    5.5030   -5.9410 C.2    21  TRP21       0.3845
     46  O         -5.6740    6.3580   -6.0770 O.co2  21  TRP21      -0.2437
     47  OXT       -3.7150    5.4030   -6.6310 O.co2  21  TRP21      -0.2437
@<TRIPOS>BOND
     1    38    39   ar
     2    38    37   ar
     3    40    39   ar
     4    40    41   ar
     5    39    44   ar
     6    41    42   ar
     7    37    36   ar
     8    47    45   ar
     9    44    36   ar
    10    44    43   ar
    11    36    35    1
    12    46    45   ar
    13    45    34    1
    14    42    43   ar
    15    35    34    1
    16    34    33    1
    17    33    31   am
    18     5     4    1
    19     8     7    2
    20    32    31    2
    21    31    26    1
    22     7     2    1
    23     7     9   am
    24     2     1    1
    25     2     3    1
    26     4     3    1
    27     4     6    1
    28    26    27    1
    29    26    25    1
    30    27    29    1
    31    27    28    1
    32     9    10    1
    33    30    29    1
    34    10    15    1
    35    10    11    1
    36    16    15    2
    37    25    23   am
    38    15    17   am
    39    13    12   ar
    40    11    12    1
    41    23    24    2
    42    23    18    1
    43    12    14   ar
    44    17    18    1
    45    18    19    1
    46    19    20    1
    47    19    21    1
    48    21    22    1
