@<TRIPOS>MOLECULE
123882
 117 122 0 0 0
SMALL
GASTEIGER

@<TRIPOS>ATOM
      1 S          -0.4918    6.8169    0.8755 S.2     3  UNK33      -0.0993
      2 O          -5.3926    0.3095   -5.8562 O.2     1  UNK11      -0.2755
      3 O          -7.5599    5.8228    2.9850 O.2     4  LEU44      -0.2738
      4 O          -4.3408    2.0600   -2.4795 O.2     1  UNK11      -0.2737
      5 O          -6.2767    3.2917    0.0492 O.2     5  TRP55      -0.2738
      6 O          -7.1790   -0.0779   -1.2232 O.2     6  ASP66      -0.2738
      7 O          -3.3267    7.0321    1.6159 O.2     3  UNK33      -0.2734
      8 O          -4.9780    6.3527   -2.4942 O.2     2  ASP22      -0.2737
      9 OD1       -10.3455    1.9356    1.9051 O.co2   6  ASP66      -0.5497
     10 OD2       -11.8283    2.0835    0.1664 O.co2   6  ASP66      -0.5497
     11 OD1        -5.1084    3.9566   -6.4645 O.co2   2  ASP22      -0.5497
     12 OD2        -2.9462    4.5198   -6.9686 O.co2   2  ASP22      -0.5497
     13 N          -6.7766    1.4143   -7.3245 N.am    1  UNK11      -0.2984
     14 N          -7.1144    2.8902   -9.8916 N.pl3   1  UNK11      -0.3269
     15 N          -7.4324    1.8379   -2.4729 N.am    1  UNK11      -0.3020
     16 N          -5.7895    4.5750    2.2464 N.am    5  TRP55      -0.3022
     17 N          -5.0667    6.3246    0.3620 N.am    4  LEU44      -0.3022
     18 N          -7.8157    1.8759    0.9831 N.am    6  ASP66      -0.3021
     19 N          -5.2673    3.6181   -3.8590 N.am    2  ASP22      -0.3021
     20 N          -3.2728    5.1835   -1.5757 N.am    3  UNK33      -0.2984
     21 NE1        -4.9526    3.3218    6.6108 N.ar    5  TRP55      -0.3604
     22 C          -7.9176    2.2970   -7.5918 C.3     1  UNK11       0.0304
     23 C          -5.8771    1.1926   -8.4627 C.3     1  UNK11       0.0304
     24 C          -8.2540    2.3928   -9.0904 C.3     1  UNK11       0.0280
     25 C          -5.7752    2.4219   -9.3945 C.3     1  UNK11       0.0280
     26 C          -6.3412    1.0722   -6.0458 C.2     1  UNK11       0.2179
     27 C          -7.1674    1.6053   -4.8860 C.3     1  UNK11       0.0510
     28 C          -6.4767    1.4622   -3.5264 C.3     1  UNK11       0.1076
     29 CA         -6.1057    6.8166    1.2868 C.3     4  LEU44       0.0997
     30 CB         -7.2614    7.3897    0.4432 C.3     4  LEU44      -0.0236
     31 CA         -6.4091    3.2686    2.4741 C.3     5  TRP55       0.1034
     32 C          -7.0693    4.2634  -10.2184 C.ar    1  UNK11       0.0298
     33 CG         -8.3853    8.1382    1.1885 C.3     4  LEU44      -0.0446
     34 CB         -5.4333    2.2697    3.1064 C.3     5  TRP55       0.0013
     35 C          -6.5860    5.7011    2.2459 C.2     4  LEU44       0.2340
     36 CA         -8.5342    1.7367   -0.2863 C.3     6  ASP66       0.1045
     37 C          -5.2277    2.3599   -3.2838 C.2     1  UNK11       0.2344
     38 CG         -4.9518    2.7015    4.4679 C.ar    5  TRP55      -0.0201
     39 C          -6.8168    2.8186    1.0552 C.2     5  TRP55       0.2343
     40 C          -7.6379    1.0534   -1.3501 C.2     6  ASP66       0.2343
     41 CA         -4.0870    4.4769   -3.8010 C.3     2  ASP22       0.1045
     42 CD2        -7.8620    9.2493    2.0969 C.3     4  LEU44      -0.0626
     43 CD1        -9.3726    8.7224    0.1718 C.3     4  LEU44      -0.0626
     44 C          -2.8174    6.2595   -0.6903 C.3     3  UNK33       0.1311
     45 C          -7.8093    5.2512   -9.5516 C.ar    1  UNK11      -0.0407
     46 C          -6.2142    4.6953  -11.2478 C.ar    1  UNK11      -0.0407
     47 CD2        -3.6161    3.0675    4.8481 C.ar    5  TRP55       0.0029
     48 C          -3.7138    6.5141    0.5693 C.2     3  UNK33       0.2390
     49 CB         -9.8077    0.9138   -0.1385 C.3     6  ASP66       0.0138
     50 CD1        -5.7383    2.8543    5.5951 C.ar    5  TRP55       0.0060
     51 CE2        -3.6494    3.4483    6.1909 C.ar    5  TRP55       0.0467
     52 C          -4.1773    5.4204   -2.5825 C.2     2  ASP22       0.2345
     53 CB         -3.9575    5.3853   -5.0259 C.3     2  ASP22       0.0138
     54 C          -7.6885    6.6069   -9.8822 C.ar    1  UNK11      -0.0600
     55 C          -6.0889    6.0479  -11.5840 C.ar    1  UNK11      -0.0600
     56 C          -1.3247    6.0512   -0.4234 C.ar    3  UNK33       0.0189
     57 CE3        -2.3803    3.1296    4.1695 C.ar    5  TRP55      -0.0523
     58 C          -6.8263    7.0060  -10.8974 C.ar    1  UNK11      -0.0616
     59 CZ2        -2.5149    3.8849    6.8876 C.ar    5  TRP55      -0.0378
     60 CG        -10.7573    1.7236    0.7251 C.2     6  ASP66       0.0440
     61 CZ3        -1.2354    3.5605    4.8512 C.ar    5  TRP55      -0.0611
     62 C          -0.4095    5.3784   -1.2273 C.ar    3  UNK33      -0.0493
     63 CH2        -1.3038    3.9325    6.1916 C.ar    5  TRP55      -0.0598
     64 CG         -3.9975    4.5383   -6.2773 C.2     2  ASP22       0.0440
     65 C           0.9296    5.4457   -0.7448 C.ar    3  UNK33      -0.0544
     66 C           1.0190    6.1866    0.4077 C.ar    3  UNK33      -0.0240
     67 H          -7.5407    2.8359   -2.3256 H       1  UNK11       0.1495
     68 H          -5.1139    4.5751    1.4892 H       5  TRP55       0.1495
     69 H          -5.3676    5.9549   -0.5405 H       4  LEU44       0.1495
     70 H          -8.4681    1.8748    1.7770 H       6  ASP66       0.1495
     71 H          -5.6968    3.6495   -4.7890 H       2  ASP22       0.1495
     72 H          -2.9392    4.2319   -1.4515 H       3  UNK33       0.1498
     73 HE1        -5.2830    3.5621    7.5341 H       5  TRP55       0.1653
     74 H          -7.6748    3.2880   -7.1957 H       1  UNK11       0.0480
     75 H          -8.7850    1.9166   -7.0423 H       1  UNK11       0.0480
     76 H          -6.2862    0.3416   -9.0213 H       1  UNK11       0.0480
     77 H          -4.8766    0.9092   -8.1207 H       1  UNK11       0.0480
     78 H          -8.4948    1.3879   -9.4617 H       1  UNK11       0.0479
     79 H          -9.1646    2.9806   -9.2542 H       1  UNK11       0.0479
     80 H          -5.2640    3.2272   -8.8566 H       1  UNK11       0.0479
     81 H          -5.1545    2.1526  -10.2574 H       1  UNK11       0.0479
     82 H          -8.0987    1.0227   -4.8739 H       1  UNK11       0.0381
     83 H          -7.4526    2.6465   -5.0594 H       1  UNK11       0.0381
     84 H          -6.1584    0.4229   -3.3846 H       1  UNK11       0.0599
     85 HA         -5.6601    7.5993    1.9082 H       4  LEU44       0.0594
     86 HB1        -7.7164    6.5713   -0.1327 H       4  LEU44       0.0290
     87 HB2        -6.8304    8.0737   -0.3018 H       4  LEU44       0.0290
     88 HA         -7.3118    3.3851    3.0844 H       5  TRP55       0.0598
     89 HG         -8.9489    7.4283    1.8033 H       4  LEU44       0.0296
     90 HB1        -4.5728    2.1181    2.4422 H       5  TRP55       0.0337
     91 HB2        -5.9164    1.2890    3.2024 H       5  TRP55       0.0337
     92 HA         -8.7899    2.7511   -0.6223 H       6  ASP66       0.0598
     93 HA         -3.1900    3.8501   -3.7218 H       2  ASP22       0.0598
     94 HD21       -7.2330    9.9530    1.5420 H       4  LEU44       0.0232
     95 HD22       -7.2746    8.8416    2.9249 H       4  LEU44       0.0232
     96 HD23       -8.6915    9.8125    2.5382 H       4  LEU44       0.0232
     97 HD11       -8.8902    9.4692   -0.4681 H       4  LEU44       0.0232
     98 HD12      -10.2142    9.2057    0.6798 H       4  LEU44       0.0232
     99 HD13       -9.7802    7.9357   -0.4720 H       4  LEU44       0.0232
    100 H          -2.8929    7.1939   -1.2663 H       3  UNK33       0.0651
    101 H          -8.4545    5.0010   -8.7166 H       1  UNK11       0.0636
    102 H          -5.6213    3.9650  -11.7916 H       1  UNK11       0.0636
    103 HB1        -9.6159   -0.0536    0.3385 H       6  ASP66       0.0348
    104 HB2       -10.2581    0.7185   -1.1194 H       6  ASP66       0.0348
    105 HD1        -6.8005    2.7091    5.7407 H       5  TRP55       0.0810
    106 HB1        -3.0261    5.9618   -4.9738 H       2  ASP22       0.0348
    107 HB2        -4.7808    6.1084   -5.0812 H       2  ASP22       0.0348
    108 H          -8.2477    7.3477   -9.3177 H       1  UNK11       0.0618
    109 H          -5.3978    6.3473  -12.3657 H       1  UNK11       0.0618
    110 HE3        -2.3157    2.8573    3.1204 H       5  TRP55       0.0624
    111 H          -6.7126    8.0591  -11.1340 H       1  UNK11       0.0618
    112 HZ2        -2.5717    4.1879    7.9271 H       5  TRP55       0.0638
    113 HZ3        -0.2885    3.6161    4.3202 H       5  TRP55       0.0618
    114 H          -0.6850    4.8682   -2.1439 H       3  UNK33       0.0626
    115 HH2        -0.4067    4.2756    6.6999 H       5  TRP55       0.0618
    116 H           1.7805    4.9845   -1.2297 H       3  UNK33       0.0623
    117 H           1.9028    6.4092    0.9882 H       3  UNK33       0.0693
@<TRIPOS>BOND
     1     1    56   ar
     2     1    66   ar
     3     2    26    2
     4     3    35    2
     5     4    37    2
     6     5    39    2
     7     6    40    2
     8     7    48    2
     9     8    52    2
    10     9    60   ar
    11    10    60   ar
    12    11    64   ar
    13    12    64   ar
    14    13    22    1
    15    13    23    1
    16    14    24    1
    17    14    25    1
    18    14    32    1
    19    15    28    1
    20    15    40   am
    21    16    35   am
    22    16    31    1
    23    17    48   am
    24    17    29    1
    25    18    39   am
    26    18    36    1
    27    19    37   am
    28    19    41    1
    29    20    52   am
    30    20    44    1
    31    21    50   ar
    32    21    51   ar
    33    22    24    1
    34    23    25    1
    35    26    27    1
    36    26    13   am
    37    28    37    1
    38    28    27    1
    39    29    35    1
    40    29    30    1
    41    30    33    1
    42    31    39    1
    43    31    34    1
    44    32    45   ar
    45    32    46   ar
    46    33    43    1
    47    33    42    1
    48    34    38    1
    49    36    40    1
    50    36    49    1
    51    38    47   ar
    52    38    50   ar
    53    41    52    1
    54    41    53    1
    55    44    48    1
    56    44    56    1
    57    45    54   ar
    58    46    55   ar
    59    47    57   ar
    60    47    51   ar
    61    49    60    1
    62    51    59   ar
    63    53    64    1
    64    54    58   ar
    65    55    58   ar
    66    56    62   ar
    67    57    61   ar
    68    59    63   ar
    69    61    63   ar
    70    62    65   ar
    71    65    66   ar
    72    15    67    1
    73    16    68    1
    74    17    69    1
    75    18    70    1
    76    19    71    1
    77    20    72    1
    78    21    73    1
    79    22    74    1
    80    22    75    1
    81    23    76    1
    82    23    77    1
    83    24    78    1
    84    24    79    1
    85    25    80    1
    86    25    81    1
    87    27    82    1
    88    27    83    1
    89    28    84    1
    90    29    85    1
    91    30    86    1
    92    30    87    1
    93    31    88    1
    94    33    89    1
    95    34    90    1
    96    34    91    1
    97    36    92    1
    98    41    93    1
    99    42    94    1
   100    42    95    1
   101    42    96    1
   102    43    97    1
   103    43    98    1
   104    43    99    1
   105    44   100    1
   106    45   101    1
   107    46   102    1
   108    49   103    1
   109    49   104    1
   110    50   105    1
   111    53   106    1
   112    53   107    1
   113    54   108    1
   114    55   109    1
   115    57   110    1
   116    58   111    1
   117    59   112    1
   118    61   113    1
   119    62   114    1
   120    63   115    1
   121    65   116    1
   122    66   117    1
@<TRIPOS>MOLECULE
../1EDN/PCA3_17-21.pdb
 47 48 0 0 0
SMALL
GASTEIGER

@<TRIPOS>ATOM
      1  N         -4.2370    0.0490   -1.5930 N.3    17  LEU17      -0.1231
      2  CA        -5.5250   -0.5610   -1.9200 C.3    17  LEU17       0.1693
      3  CB        -5.7360   -1.8160   -1.1010 C.3    17  LEU17       0.0284
      4  CG        -6.9950   -2.5690   -1.5730 C.3    17  LEU17       0.0019
      5  CD1       -6.7530   -3.1800   -3.0080 C.3    17  LEU17       0.0001
      6  CD2       -7.2580   -3.7400   -0.6960 C.3    17  LEU17       0.0001
      7  C         -6.6810    0.4320   -1.9250 C.2    17  LEU17       0.2592
      8  O         -7.3270    0.6200   -2.9560 O.2    17  LEU17      -0.2718
      9  N         -6.9500    1.1080   -0.7900 N.am   18  ASP18      -0.1960
     10  CA        -8.0880    2.0070   -0.5710 C.3    18  ASP18       0.1840
     11  CB        -9.1090    1.3410    0.3760 C.3    18  ASP18       0.1450
     12  CG       -10.1470    2.2990    0.9520 C.2    18  ASP18       0.3671
     13  OD1      -11.0720    2.5310    0.1500 O.co2  18  ASP18      -0.2456
     14  OD2      -10.1960    2.6850    2.1610 O.co2  18  ASP18      -0.2456
     15  C         -7.6280    3.3500    0.0060 C.2    18  ASP18       0.2622
     16  O         -7.9950    4.4650   -0.3580 O.2    18  ASP18      -0.2715
     17  N         -6.8140    3.2050    1.0390 N.am   19  ILE19      -0.1963
     18  CA        -6.1800    4.3790    1.8160 C.3    19  ILE19       0.1727
     19  CB        -5.3140    3.8890    3.0670 C.3    19  ILE19       0.0290
     20  CG2       -4.6600    5.0630    3.8540 C.3    19  ILE19       0.0023
     21  CG1       -6.1440    2.9790    3.9890 C.3    19  ILE19       0.0022
     22  CD1       -5.5170    2.2940    5.2130 C.3    19  ILE19       0.0001
     23  C         -5.2670    5.2520    0.8640 C.2    19  ILE19       0.2616
     24  O         -5.3920    6.4650    0.9090 O.2    19  ILE19      -0.2715
     25  N         -4.4890    4.6060    0.0020 N.am   20  ILE20      -0.1963
     26  CA        -3.9690    5.2910   -1.1850 C.3    20  ILE20       0.1727
     27  CB        -2.4460    5.7340   -1.0120 C.3    20  ILE20       0.0290
     28  CG2       -2.3030    7.0110   -0.1100 C.3    20  ILE20       0.0023
     29  CG1       -1.4300    4.6170   -0.6100 C.3    20  ILE20       0.0022
     30  CD1        0.0800    4.9990   -0.7110 C.3    20  ILE20       0.0001
     31  C         -4.1660    4.3690   -2.4130 C.2    20  ILE20       0.2617
     32  O         -3.9200    3.1710   -2.5010 O.2    20  ILE20      -0.2715
     33  N         -4.6410    5.0460   -3.5090 N.am   21  TRP21      -0.1938
     34  CA        -4.8980    4.4430   -4.8120 C.3    21  TRP21       0.2021
     35  CB        -6.2680    3.7450   -4.8170 C.3    21  TRP21       0.0612
     36  CG        -6.5090    2.9660   -6.0890 C.ar   21  TRP21       0.0007
     37  CD1       -7.0550    3.4090   -7.2190 C.ar   21  TRP21       0.0946
     38  NE1       -7.1560    2.4190   -8.1260 N.ar   21  TRP21      -0.2442
     39  CE2       -6.6880    1.2600   -7.6470 C.ar   21  TRP21       0.0810
     40  CZ2       -6.5320   -0.1050   -8.0600 C.ar   21  TRP21       0.0191
     41  CH2       -5.9630   -1.0770   -7.2340 C.ar   21  TRP21       0.0015
     42  CZ3       -5.4330   -0.7150   -5.9030 C.ar   21  TRP21       0.0001
     43  CE3       -5.5290    0.6400   -5.5430 C.ar   21  TRP21       0.0012
     44  CD2       -6.2440    1.5830   -6.3190 C.ar   21  TRP21       0.0152
     45  C         -4.7460    5.5030   -5.9410 C.2    21  TRP21       0.3845
     46  O         -5.6740    6.3580   -6.0770 O.co2  21  TRP21      -0.2437
     47  OXT       -3.7150    5.4030   -6.6310 O.co2  21  TRP21      -0.2437
@<TRIPOS>BOND
     1    38    39   ar
     2    38    37   ar
     3    40    39   ar
     4    40    41   ar
     5    39    44   ar
     6    41    42   ar
     7    37    36   ar
     8    47    45   ar
     9    44    36   ar
    10    44    43   ar
    11    36    35    1
    12    46    45   ar
    13    45    34    1
    14    42    43   ar
    15    35    34    1
    16    34    33    1
    17    33    31   am
    18     5     4    1
    19     8     7    2
    20    32    31    2
    21    31    26    1
    22     7     2    1
    23     7     9   am
    24     2     1    1
    25     2     3    1
    26     4     3    1
    27     4     6    1
    28    26    27    1
    29    26    25    1
    30    27    29    1
    31    27    28    1
    32     9    10    1
    33    30    29    1
    34    10    15    1
    35    10    11    1
    36    16    15    2
    37    25    23   am
    38    15    17   am
    39    13    12   ar
    40    11    12    1
    41    23    24    2
    42    23    18    1
    43    12    14   ar
    44    17    18    1
    45    18    19    1
    46    19    20    1
    47    19    21    1
    48    21    22    1
