@<TRIPOS>MOLECULE
46174111
 44 47 0 0 0
SMALL
GASTEIGER

@<TRIPOS>ATOM
      1 CL         -6.9079    1.2160   -1.5191 Cl      1  LIG11      -0.0762
      2 S          -6.1129    5.5289    0.0043 S.O2    1  LIG11       0.0758
      3 S          -2.2840    4.6456   -1.7203 S.2     1  LIG11      -0.0918
      4 O          -6.3835    0.3912   -6.9662 O.3     1  LIG11      -0.4526
      5 O          -7.4408    2.1095   -8.2883 O.3     1  LIG11      -0.4526
      6 O          -6.0137    4.2274   -2.8007 O.2     1  LIG11      -0.2911
      7 O          -6.4022    6.7514   -0.7173 O.2     1  LIG11      -0.1499
      8 O          -6.0494    5.5051    1.4495 O.2     1  LIG11      -0.1499
      9 O          -7.8396    3.3569    1.5826 O.2     1  LIG11      -0.3364
     10 N          -7.1246    4.3312   -0.5680 N.pl3   1  LIG11      -0.1821
     11 N          -8.1386    2.1001    2.0848 N.ar    1  LIG11      -0.0798
     12 C          -4.9591    3.3078   -5.2160 C.ar    1  LIG11      -0.0333
     13 C          -4.0487    3.6415   -4.0451 C.3     1  LIG11       0.0366
     14 C          -5.5747    4.3209   -6.0069 C.ar    1  LIG11      -0.0432
     15 C          -4.4519    5.2208   -0.4745 C.ar    1  LIG11       0.1261
     16 C          -4.0067    4.6883   -1.6803 C.ar    1  LIG11       0.0814
     17 C          -5.2044    1.9506   -5.5096 C.ar    1  LIG11      -0.0123
     18 C          -4.7829    4.2104   -2.8293 C.2     1  LIG11       0.1759
     19 C          -6.0446    1.6436   -6.5586 C.ar    1  LIG11       0.1665
     20 C          -6.6449    2.6197   -7.3114 C.ar    1  LIG11       0.1665
     21 C          -6.4372    3.9574   -7.0590 C.ar    1  LIG11      -0.0130
     22 C          -5.4102    5.7893   -5.7133 C.3     1  LIG11      -0.0393
     23 C          -3.3647    5.6314    0.3699 C.ar    1  LIG11      -0.0273
     24 C          -7.2708    0.6951   -8.0634 C.3     1  LIG11       0.2332
     25 C          -2.1373    5.3829   -0.1947 C.ar    1  LIG11      -0.0217
     26 C          -7.4209    3.2491    0.2913 C.ar    1  LIG11       0.2554
     27 C          -7.4106    1.9192   -0.0590 C.ar    1  LIG11       0.1262
     28 C          -7.8727    1.2407    1.0919 C.ar    1  LIG11       0.1009
     29 C          -8.0573   -0.2119    1.3099 C.3     1  LIG11      -0.0176
     30 H          -6.9733    4.1215   -1.5630 H       1  LIG11       0.1768
     31 H          -3.5283    2.7306   -3.7225 H       1  LIG11       0.0394
     32 H          -3.2859    4.3436   -4.3969 H       1  LIG11       0.0394
     33 H          -4.7579    1.1490   -4.9302 H       1  LIG11       0.0658
     34 H          -6.9410    4.7065   -7.6620 H       1  LIG11       0.0658
     35 H          -4.4161    6.0194   -5.3219 H       1  LIG11       0.0278
     36 H          -6.1645    6.1111   -4.9887 H       1  LIG11       0.0278
     37 H          -5.5290    6.3831   -6.6263 H       1  LIG11       0.0278
     38 H          -3.4867    6.1052    1.3385 H       1  LIG11       0.0643
     39 H          -8.2518    0.2526   -7.8546 H       1  LIG11       0.1166
     40 H          -6.8681    0.2414   -8.9763 H       1  LIG11       0.1166
     41 H          -1.1614    5.6055    0.2179 H       1  LIG11       0.0694
     42 H          -8.9425   -0.4083    1.9240 H       1  LIG11       0.0294
     43 H          -7.1841   -0.6288    1.8217 H       1  LIG11       0.0294
     44 H          -8.1873   -0.7474    0.3645 H       1  LIG11       0.0294
@<TRIPOS>BOND
     1     1    27    1
     2     2    10    1
     3     2    15    1
     4     2     8    2
     5     2     7    2
     6     3    16   ar
     7     3    25   ar
     8     4    24    1
     9     4    19    1
    10     5    20    1
    11     5    24    1
    12     6    18    2
    13     9    11   ar
    14     9    26   ar
    15    10    26    1
    16    11    28   ar
    17    12    17   ar
    18    12    14   ar
    19    13    18    1
    20    13    12    1
    21    14    21   ar
    22    14    22    1
    23    15    23   ar
    24    15    16   ar
    25    16    18    1
    26    17    19   ar
    27    19    20   ar
    28    20    21   ar
    29    23    25   ar
    30    26    27   ar
    31    27    28   ar
    32    28    29    1
    33    10    30    1
    34    13    31    1
    35    13    32    1
    36    17    33    1
    37    21    34    1
    38    22    35    1
    39    22    36    1
    40    22    37    1
    41    23    38    1
    42    24    39    1
    43    24    40    1
    44    25    41    1
    45    29    42    1
    46    29    43    1
    47    29    44    1
@<TRIPOS>MOLECULE
../1EDN/PCA3_17-21.pdb
 47 48 0 0 0
SMALL
GASTEIGER

@<TRIPOS>ATOM
      1  N         -4.2370    0.0490   -1.5930 N.3    17  LEU17      -0.1231
      2  CA        -5.5250   -0.5610   -1.9200 C.3    17  LEU17       0.1693
      3  CB        -5.7360   -1.8160   -1.1010 C.3    17  LEU17       0.0284
      4  CG        -6.9950   -2.5690   -1.5730 C.3    17  LEU17       0.0019
      5  CD1       -6.7530   -3.1800   -3.0080 C.3    17  LEU17       0.0001
      6  CD2       -7.2580   -3.7400   -0.6960 C.3    17  LEU17       0.0001
      7  C         -6.6810    0.4320   -1.9250 C.2    17  LEU17       0.2592
      8  O         -7.3270    0.6200   -2.9560 O.2    17  LEU17      -0.2718
      9  N         -6.9500    1.1080   -0.7900 N.am   18  ASP18      -0.1960
     10  CA        -8.0880    2.0070   -0.5710 C.3    18  ASP18       0.1840
     11  CB        -9.1090    1.3410    0.3760 C.3    18  ASP18       0.1450
     12  CG       -10.1470    2.2990    0.9520 C.2    18  ASP18       0.3671
     13  OD1      -11.0720    2.5310    0.1500 O.co2  18  ASP18      -0.2456
     14  OD2      -10.1960    2.6850    2.1610 O.co2  18  ASP18      -0.2456
     15  C         -7.6280    3.3500    0.0060 C.2    18  ASP18       0.2622
     16  O         -7.9950    4.4650   -0.3580 O.2    18  ASP18      -0.2715
     17  N         -6.8140    3.2050    1.0390 N.am   19  ILE19      -0.1963
     18  CA        -6.1800    4.3790    1.8160 C.3    19  ILE19       0.1727
     19  CB        -5.3140    3.8890    3.0670 C.3    19  ILE19       0.0290
     20  CG2       -4.6600    5.0630    3.8540 C.3    19  ILE19       0.0023
     21  CG1       -6.1440    2.9790    3.9890 C.3    19  ILE19       0.0022
     22  CD1       -5.5170    2.2940    5.2130 C.3    19  ILE19       0.0001
     23  C         -5.2670    5.2520    0.8640 C.2    19  ILE19       0.2616
     24  O         -5.3920    6.4650    0.9090 O.2    19  ILE19      -0.2715
     25  N         -4.4890    4.6060    0.0020 N.am   20  ILE20      -0.1963
     26  CA        -3.9690    5.2910   -1.1850 C.3    20  ILE20       0.1727
     27  CB        -2.4460    5.7340   -1.0120 C.3    20  ILE20       0.0290
     28  CG2       -2.3030    7.0110   -0.1100 C.3    20  ILE20       0.0023
     29  CG1       -1.4300    4.6170   -0.6100 C.3    20  ILE20       0.0022
     30  CD1        0.0800    4.9990   -0.7110 C.3    20  ILE20       0.0001
     31  C         -4.1660    4.3690   -2.4130 C.2    20  ILE20       0.2617
     32  O         -3.9200    3.1710   -2.5010 O.2    20  ILE20      -0.2715
     33  N         -4.6410    5.0460   -3.5090 N.am   21  TRP21      -0.1938
     34  CA        -4.8980    4.4430   -4.8120 C.3    21  TRP21       0.2021
     35  CB        -6.2680    3.7450   -4.8170 C.3    21  TRP21       0.0612
     36  CG        -6.5090    2.9660   -6.0890 C.ar   21  TRP21       0.0007
     37  CD1       -7.0550    3.4090   -7.2190 C.ar   21  TRP21       0.0946
     38  NE1       -7.1560    2.4190   -8.1260 N.ar   21  TRP21      -0.2442
     39  CE2       -6.6880    1.2600   -7.6470 C.ar   21  TRP21       0.0810
     40  CZ2       -6.5320   -0.1050   -8.0600 C.ar   21  TRP21       0.0191
     41  CH2       -5.9630   -1.0770   -7.2340 C.ar   21  TRP21       0.0015
     42  CZ3       -5.4330   -0.7150   -5.9030 C.ar   21  TRP21       0.0001
     43  CE3       -5.5290    0.6400   -5.5430 C.ar   21  TRP21       0.0012
     44  CD2       -6.2440    1.5830   -6.3190 C.ar   21  TRP21       0.0152
     45  C         -4.7460    5.5030   -5.9410 C.2    21  TRP21       0.3845
     46  O         -5.6740    6.3580   -6.0770 O.co2  21  TRP21      -0.2437
     47  OXT       -3.7150    5.4030   -6.6310 O.co2  21  TRP21      -0.2437
@<TRIPOS>BOND
     1    38    39   ar
     2    38    37   ar
     3    40    39   ar
     4    40    41   ar
     5    39    44   ar
     6    41    42   ar
     7    37    36   ar
     8    47    45   ar
     9    44    36   ar
    10    44    43   ar
    11    36    35    1
    12    46    45   ar
    13    45    34    1
    14    42    43   ar
    15    35    34    1
    16    34    33    1
    17    33    31   am
    18     5     4    1
    19     8     7    2
    20    32    31    2
    21    31    26    1
    22     7     2    1
    23     7     9   am
    24     2     1    1
    25     2     3    1
    26     4     3    1
    27     4     6    1
    28    26    27    1
    29    26    25    1
    30    27    29    1
    31    27    28    1
    32     9    10    1
    33    30    29    1
    34    10    15    1
    35    10    11    1
    36    16    15    2
    37    25    23   am
    38    15    17   am
    39    13    12   ar
    40    11    12    1
    41    23    24    2
    42    23    18    1
    43    12    14   ar
    44    17    18    1
    45    18    19    1
    46    19    20    1
    47    19    21    1
    48    21    22    1
