@<TRIPOS>MOLECULE
156690
 70 73 0 0 0
SMALL
GASTEIGER

@<TRIPOS>ATOM
      1 S          -3.9731    4.3954   -1.8945 S.O2    1  LIG11       0.0741
      2 O          -7.8055    1.7677   -6.1768 O.2     1  LIG11      -0.2756
      3 O          -3.8486    2.9941   -1.5625 O.2     1  LIG11      -0.1499
      4 O          -2.8607    5.2937   -1.6602 O.2     1  LIG11      -0.1499
      5 O          -6.4478   -2.6928   -2.9501 O.2     1  LIG11      -0.4436
      6 O          -7.1349    3.8890    1.5725 O.2     1  LIG11      -0.3578
      7 N          -6.1165    0.4105   -6.9420 N.am    1  LIG11      -0.3002
      8 N          -5.3363    5.0781   -1.1597 N.pl3   1  LIG11      -0.1965
      9 N          -6.8005   -1.8969   -0.8668 N.ar    1  LIG11      -0.2175
     10 N          -7.0118    4.2433    0.2460 N.ar    1  LIG11      -0.0614
     11 C          -9.9704    0.3202   -7.3877 C.3     1  LIG11      -0.0295
     12 C          -8.4711    0.0822   -7.7376 C.3     1  LIG11       0.0290
     13 C         -10.8216   -0.5062   -8.3751 C.3     1  LIG11      -0.0596
     14 C         -10.2824   -0.1679   -5.9612 C.3     1  LIG11      -0.0596
     15 C         -10.3933    1.7940   -7.5375 C.3     1  LIG11      -0.0596
     16 C          -7.4480    0.8271   -6.8821 C.2     1  LIG11       0.2161
     17 C          -5.1009    1.0563   -6.0755 C.3     1  LIG11       0.0400
     18 C          -5.5032    1.1043   -4.6105 C.ar    1  LIG11      -0.0216
     19 C          -5.7183    2.2974   -3.8638 C.ar    1  LIG11      -0.0113
     20 C          -5.3092    3.6676   -4.3163 C.ar    1  LIG11       0.0090
     21 C          -5.6030   -0.5238   -7.9318 C.3     1  LIG11       0.0035
     22 C          -5.7592   -0.1628   -4.0194 C.ar    1  LIG11      -0.0442
     23 C          -4.4690    4.5729   -3.6159 C.ar    1  LIG11       0.1162
     24 C          -6.3823    2.1331   -2.6349 C.ar    1  LIG11      -0.0529
     25 C          -6.2975   -0.2932   -2.7390 C.ar    1  LIG11       0.0372
     26 C          -6.6374    0.8753   -2.0661 C.ar    1  LIG11      -0.0489
     27 C          -5.7861    4.1433   -5.5590 C.ar    1  LIG11      -0.0521
     28 C          -4.0500    5.7915   -4.2053 C.ar    1  LIG11      -0.0345
     29 C          -5.3796    5.3523   -6.1358 C.ar    1  LIG11      -0.0611
     30 C          -6.5255   -1.5969   -2.1237 C.ar    1  LIG11       0.2271
     31 C          -4.4885    6.1689   -5.4673 C.ar    1  LIG11      -0.0599
     32 C          -5.7514    4.6577    0.0957 C.ar    1  LIG11       0.1837
     33 C          -5.0641    4.7036    1.3310 C.ar    1  LIG11       0.0342
     34 C          -5.9740    4.1658    2.2199 C.ar    1  LIG11       0.1390
     35 C          -3.7226    5.2417    1.6403 C.3     1  LIG11      -0.0330
     36 C          -6.6928   -3.7501   -2.1284 C.ar    1  LIG11       0.1125
     37 C          -6.8947   -3.2649   -0.8626 C.ar    1  LIG11       0.0663
     38 C          -5.9621    3.8834    3.6669 C.3     1  LIG11      -0.0034
     39 H          -6.1209    5.1499   -1.8055 H       1  LIG11       0.1753
     40 H          -8.2958    0.3803   -8.7790 H       1  LIG11       0.0364
     41 H          -8.2700   -0.9924   -7.6478 H       1  LIG11       0.0364
     42 H         -10.5740   -1.5719   -8.3193 H       1  LIG11       0.0235
     43 H         -10.6583   -0.1761   -9.4074 H       1  LIG11       0.0235
     44 H         -11.8917   -0.4031   -8.1599 H       1  LIG11       0.0235
     45 H         -10.0125   -1.2228   -5.8382 H       1  LIG11       0.0235
     46 H         -11.3508   -0.0709   -5.7366 H       1  LIG11       0.0235
     47 H          -9.7392    0.4044   -5.2026 H       1  LIG11       0.0235
     48 H         -10.0757    2.2006   -8.5035 H       1  LIG11       0.0235
     49 H          -9.9832    2.4327   -6.7503 H       1  LIG11       0.0235
     50 H         -11.4835    1.8969   -7.4763 H       1  LIG11       0.0235
     51 H          -4.8621    2.0251   -6.5126 H       1  LIG11       0.0514
     52 H          -4.1750    0.4679   -6.1363 H       1  LIG11       0.0514
     53 H          -6.3495   -0.8210   -8.6689 H       1  LIG11       0.0429
     54 H          -5.2408   -1.4151   -7.4112 H       1  LIG11       0.0429
     55 H          -4.7727   -0.0511   -8.4652 H       1  LIG11       0.0429
     56 H          -5.5486   -1.0616   -4.5983 H       1  LIG11       0.0628
     57 H          -6.7114    2.9942   -2.0687 H       1  LIG11       0.0624
     58 H          -7.0983    0.8262   -1.0807 H       1  LIG11       0.0625
     59 H          -6.5041    3.5600   -6.1268 H       1  LIG11       0.0624
     60 H          -3.3941    6.4753   -3.6674 H       1  LIG11       0.0637
     61 H          -5.7674    5.6419   -7.1095 H       1  LIG11       0.0618
     62 H          -4.1631    7.1080   -5.9066 H       1  LIG11       0.0618
     63 H          -3.3605    5.9046    0.8504 H       1  LIG11       0.0280
     64 H          -3.0019    4.4312    1.7784 H       1  LIG11       0.0280
     65 H          -3.7555    5.8351    2.5614 H       1  LIG11       0.0280
     66 H          -6.6839   -4.7293   -2.5827 H       1  LIG11       0.1046
     67 H          -7.1031   -3.8184    0.0419 H       1  LIG11       0.0862
     68 H          -6.5965    3.0227    3.9026 H       1  LIG11       0.0309
     69 H          -6.3360    4.7473    4.2244 H       1  LIG11       0.0309
     70 H          -4.9493    3.6592    4.0141 H       1  LIG11       0.0309
@<TRIPOS>BOND
     1     1     3    2
     2     1     4    2
     3     1     8    1
     4     1    23    1
     5     2    16    2
     6     5    30   ar
     7     5    36   ar
     8     6    10   ar
     9     6    34   ar
    10     7    16   am
    11     7    17    1
    12     7    21    1
    13     8    32    1
    14     9    30   ar
    15     9    37   ar
    16    10    32   ar
    17    11    12    1
    18    11    13    1
    19    11    14    1
    20    11    15    1
    21    12    16    1
    22    17    18    1
    23    18    19   ar
    24    18    22   ar
    25    19    20    1
    26    19    24   ar
    27    20    23   ar
    28    20    27   ar
    29    22    25   ar
    30    23    28   ar
    31    24    26   ar
    32    25    26   ar
    33    25    30    1
    34    27    29   ar
    35    28    31   ar
    36    29    31   ar
    37    32    33   ar
    38    33    34   ar
    39    33    35    1
    40    34    38    1
    41    36    37   ar
    42     8    39    1
    43    12    40    1
    44    12    41    1
    45    13    42    1
    46    13    43    1
    47    13    44    1
    48    14    45    1
    49    14    46    1
    50    14    47    1
    51    15    48    1
    52    15    49    1
    53    15    50    1
    54    17    51    1
    55    17    52    1
    56    21    53    1
    57    21    54    1
    58    21    55    1
    59    22    56    1
    60    24    57    1
    61    26    58    1
    62    27    59    1
    63    28    60    1
    64    29    61    1
    65    31    62    1
    66    35    63    1
    67    35    64    1
    68    35    65    1
    69    36    66    1
    70    37    67    1
    71    38    68    1
    72    38    69    1
    73    38    70    1
@<TRIPOS>MOLECULE
../1EDN/PCA3_17-21.pdb
 47 48 0 0 0
SMALL
GASTEIGER

@<TRIPOS>ATOM
      1  N         -4.2370    0.0490   -1.5930 N.3    17  LEU17      -0.1231
      2  CA        -5.5250   -0.5610   -1.9200 C.3    17  LEU17       0.1693
      3  CB        -5.7360   -1.8160   -1.1010 C.3    17  LEU17       0.0284
      4  CG        -6.9950   -2.5690   -1.5730 C.3    17  LEU17       0.0019
      5  CD1       -6.7530   -3.1800   -3.0080 C.3    17  LEU17       0.0001
      6  CD2       -7.2580   -3.7400   -0.6960 C.3    17  LEU17       0.0001
      7  C         -6.6810    0.4320   -1.9250 C.2    17  LEU17       0.2592
      8  O         -7.3270    0.6200   -2.9560 O.2    17  LEU17      -0.2718
      9  N         -6.9500    1.1080   -0.7900 N.am   18  ASP18      -0.1960
     10  CA        -8.0880    2.0070   -0.5710 C.3    18  ASP18       0.1840
     11  CB        -9.1090    1.3410    0.3760 C.3    18  ASP18       0.1450
     12  CG       -10.1470    2.2990    0.9520 C.2    18  ASP18       0.3671
     13  OD1      -11.0720    2.5310    0.1500 O.co2  18  ASP18      -0.2456
     14  OD2      -10.1960    2.6850    2.1610 O.co2  18  ASP18      -0.2456
     15  C         -7.6280    3.3500    0.0060 C.2    18  ASP18       0.2622
     16  O         -7.9950    4.4650   -0.3580 O.2    18  ASP18      -0.2715
     17  N         -6.8140    3.2050    1.0390 N.am   19  ILE19      -0.1963
     18  CA        -6.1800    4.3790    1.8160 C.3    19  ILE19       0.1727
     19  CB        -5.3140    3.8890    3.0670 C.3    19  ILE19       0.0290
     20  CG2       -4.6600    5.0630    3.8540 C.3    19  ILE19       0.0023
     21  CG1       -6.1440    2.9790    3.9890 C.3    19  ILE19       0.0022
     22  CD1       -5.5170    2.2940    5.2130 C.3    19  ILE19       0.0001
     23  C         -5.2670    5.2520    0.8640 C.2    19  ILE19       0.2616
     24  O         -5.3920    6.4650    0.9090 O.2    19  ILE19      -0.2715
     25  N         -4.4890    4.6060    0.0020 N.am   20  ILE20      -0.1963
     26  CA        -3.9690    5.2910   -1.1850 C.3    20  ILE20       0.1727
     27  CB        -2.4460    5.7340   -1.0120 C.3    20  ILE20       0.0290
     28  CG2       -2.3030    7.0110   -0.1100 C.3    20  ILE20       0.0023
     29  CG1       -1.4300    4.6170   -0.6100 C.3    20  ILE20       0.0022
     30  CD1        0.0800    4.9990   -0.7110 C.3    20  ILE20       0.0001
     31  C         -4.1660    4.3690   -2.4130 C.2    20  ILE20       0.2617
     32  O         -3.9200    3.1710   -2.5010 O.2    20  ILE20      -0.2715
     33  N         -4.6410    5.0460   -3.5090 N.am   21  TRP21      -0.1938
     34  CA        -4.8980    4.4430   -4.8120 C.3    21  TRP21       0.2021
     35  CB        -6.2680    3.7450   -4.8170 C.3    21  TRP21       0.0612
     36  CG        -6.5090    2.9660   -6.0890 C.ar   21  TRP21       0.0007
     37  CD1       -7.0550    3.4090   -7.2190 C.ar   21  TRP21       0.0946
     38  NE1       -7.1560    2.4190   -8.1260 N.ar   21  TRP21      -0.2442
     39  CE2       -6.6880    1.2600   -7.6470 C.ar   21  TRP21       0.0810
     40  CZ2       -6.5320   -0.1050   -8.0600 C.ar   21  TRP21       0.0191
     41  CH2       -5.9630   -1.0770   -7.2340 C.ar   21  TRP21       0.0015
     42  CZ3       -5.4330   -0.7150   -5.9030 C.ar   21  TRP21       0.0001
     43  CE3       -5.5290    0.6400   -5.5430 C.ar   21  TRP21       0.0012
     44  CD2       -6.2440    1.5830   -6.3190 C.ar   21  TRP21       0.0152
     45  C         -4.7460    5.5030   -5.9410 C.2    21  TRP21       0.3845
     46  O         -5.6740    6.3580   -6.0770 O.co2  21  TRP21      -0.2437
     47  OXT       -3.7150    5.4030   -6.6310 O.co2  21  TRP21      -0.2437
@<TRIPOS>BOND
     1    38    39   ar
     2    38    37   ar
     3    40    39   ar
     4    40    41   ar
     5    39    44   ar
     6    41    42   ar
     7    37    36   ar
     8    47    45   ar
     9    44    36   ar
    10    44    43   ar
    11    36    35    1
    12    46    45   ar
    13    45    34    1
    14    42    43   ar
    15    35    34    1
    16    34    33    1
    17    33    31   am
    18     5     4    1
    19     8     7    2
    20    32    31    2
    21    31    26    1
    22     7     2    1
    23     7     9   am
    24     2     1    1
    25     2     3    1
    26     4     3    1
    27     4     6    1
    28    26    27    1
    29    26    25    1
    30    27    29    1
    31    27    28    1
    32     9    10    1
    33    30    29    1
    34    10    15    1
    35    10    11    1
    36    16    15    2
    37    25    23   am
    38    15    17   am
    39    13    12   ar
    40    11    12    1
    41    23    24    2
    42    23    18    1
    43    12    14   ar
    44    17    18    1
    45    18    19    1
    46    19    20    1
    47    19    21    1
    48    21    22    1
