@<TRIPOS>MOLECULE
*****
 48 50 0 0 0
SMALL
GASTEIGER

@<TRIPOS>ATOM
      1 C          -9.1315    2.7052    0.0243 C.ar    1  LIG11      -0.0615
      2 C          -9.2206    1.3655   -0.3389 C.ar    1  LIG11      -0.0617
      3 C          -8.0708    0.6767   -0.7103 C.ar    1  LIG11      -0.0615
      4 C          -6.8295    1.3210   -0.6976 C.ar    1  LIG11      -0.0576
      5 C          -6.7059    2.6669   -0.3042 C.ar    1  LIG11      -0.0332
      6 C          -7.8917    3.3519    0.0280 C.ar    1  LIG11      -0.0576
      7 C          -5.3526    5.7332    0.9066 C.ar    1  LIG11      -0.0576
      8 C          -5.3536    6.5322    2.0562 C.ar    1  LIG11      -0.0615
      9 C          -5.3105    5.9506    3.3186 C.ar    1  LIG11      -0.0617
     10 C          -5.2754    4.5665    3.4331 C.ar    1  LIG11      -0.0615
     11 C          -5.2710    3.7704    2.2836 C.ar    1  LIG11      -0.0576
     12 N          -6.0550    2.6946   -4.8331 N.ar    1  LIG11      -0.2002
     13 C          -5.4892    3.5692   -3.9823 C.ar    1  LIG11       0.3190
     14 N          -5.0735    4.7949   -4.3132 N.ar    1  LIG11      -0.2002
     15 C          -5.1663    5.1506   -5.6037 C.ar    1  LIG11       0.0453
     16 C          -5.7348    4.3261   -6.5530 C.ar    1  LIG11      -0.0193
     17 C          -6.1802    3.0943   -6.1128 C.ar    1  LIG11       0.0453
     18 C          -6.8457    2.1352   -7.0501 C.3     1  LIG11      -0.0221
     19 C          -4.5857    6.4763   -5.9865 C.3     1  LIG11      -0.0221
     20 O          -5.2966    3.0915   -2.7098 O.3     1  LIG11      -0.4519
     21 C          -5.1285    4.1112   -1.6760 C.3     1  LIG11       0.1554
     22 C          -5.3119    3.4023   -0.2707 C.3     1  LIG11       0.0601
     23 C          -3.7296    4.7964   -1.8235 C.2     1  LIG11       0.0833
     24 O          -2.7362    4.0304   -2.0068 O.co2   1  LIG11      -0.5460
     25 O          -3.7338    6.0638   -1.7312 O.co2   1  LIG11      -0.5460
     26 C          -5.2874    4.3335    0.9875 C.ar    1  LIG11      -0.0332
     27 C          -4.1613    2.3621   -0.0764 C.3     1  LIG11      -0.0477
     28 H         -10.0257    3.2568    0.3007 H       1  LIG11       0.0618
     29 H         -10.1829    0.8646   -0.3495 H       1  LIG11       0.0618
     30 H          -8.1316   -0.3613   -1.0250 H       1  LIG11       0.0618
     31 H          -5.9604    0.7583   -1.0289 H       1  LIG11       0.0621
     32 H          -7.8606    4.4036    0.3030 H       1  LIG11       0.0621
     33 H          -5.3973    6.2428   -0.0525 H       1  LIG11       0.0621
     34 H          -5.3784    7.6130    1.9492 H       1  LIG11       0.0618
     35 H          -5.3036    6.5753    4.2060 H       1  LIG11       0.0618
     36 H          -5.2504    4.0992    4.4127 H       1  LIG11       0.0618
     37 H          -5.2676    2.6907    2.4108 H       1  LIG11       0.0621
     38 H          -5.8130    4.6287   -7.5885 H       1  LIG11       0.0653
     39 H          -6.7664    2.4644   -8.0919 H       1  LIG11       0.0293
     40 H          -7.9071    2.0474   -6.7972 H       1  LIG11       0.0293
     41 H          -6.3795    1.1486   -6.9716 H       1  LIG11       0.0293
     42 H          -4.1796    6.9942   -5.1100 H       1  LIG11       0.0293
     43 H          -5.3515    7.1129   -6.4362 H       1  LIG11       0.0293
     44 H          -3.7689    6.3359   -6.7026 H       1  LIG11       0.0293
     45 H          -5.9277    4.8571   -1.8078 H       1  LIG11       0.0810
     46 H          -3.9645    1.7840   -0.9867 H       1  LIG11       0.0243
     47 H          -4.3827    1.6310    0.7096 H       1  LIG11       0.0243
     48 H          -3.2220    2.8511    0.2086 H       1  LIG11       0.0243
@<TRIPOS>BOND
     1     1     2   ar
     2     2     3   ar
     3     3     4   ar
     4     4     5   ar
     5     5     6   ar
     6     5    22    1
     7     6     1   ar
     8     7     8   ar
     9     8     9   ar
    10     9    10   ar
    11    10    11   ar
    12    11    26   ar
    13    12    13   ar
    14    13    14   ar
    15    14    15   ar
    16    15    16   ar
    17    15    19    1
    18    16    17   ar
    19    17    12   ar
    20    17    18    1
    21    20    21    1
    22    20    13    1
    23    21    23    1
    24    21    22    1
    25    22    27    1
    26    22    26    1
    27    23    25   ar
    28    23    24   ar
    29    26     7   ar
    30     1    28    1
    31     2    29    1
    32     3    30    1
    33     4    31    1
    34     6    32    1
    35     7    33    1
    36     8    34    1
    37     9    35    1
    38    10    36    1
    39    11    37    1
    40    16    38    1
    41    18    39    1
    42    18    40    1
    43    18    41    1
    44    19    42    1
    45    19    43    1
    46    19    44    1
    47    21    45    1
    48    27    46    1
    49    27    47    1
    50    27    48    1
@<TRIPOS>MOLECULE
../1EDN/PCA3_17-21.pdb
 47 48 0 0 0
SMALL
GASTEIGER

@<TRIPOS>ATOM
      1  N         -4.2370    0.0490   -1.5930 N.3    17  LEU17      -0.1231
      2  CA        -5.5250   -0.5610   -1.9200 C.3    17  LEU17       0.1693
      3  CB        -5.7360   -1.8160   -1.1010 C.3    17  LEU17       0.0284
      4  CG        -6.9950   -2.5690   -1.5730 C.3    17  LEU17       0.0019
      5  CD1       -6.7530   -3.1800   -3.0080 C.3    17  LEU17       0.0001
      6  CD2       -7.2580   -3.7400   -0.6960 C.3    17  LEU17       0.0001
      7  C         -6.6810    0.4320   -1.9250 C.2    17  LEU17       0.2592
      8  O         -7.3270    0.6200   -2.9560 O.2    17  LEU17      -0.2718
      9  N         -6.9500    1.1080   -0.7900 N.am   18  ASP18      -0.1960
     10  CA        -8.0880    2.0070   -0.5710 C.3    18  ASP18       0.1840
     11  CB        -9.1090    1.3410    0.3760 C.3    18  ASP18       0.1450
     12  CG       -10.1470    2.2990    0.9520 C.2    18  ASP18       0.3671
     13  OD1      -11.0720    2.5310    0.1500 O.co2  18  ASP18      -0.2456
     14  OD2      -10.1960    2.6850    2.1610 O.co2  18  ASP18      -0.2456
     15  C         -7.6280    3.3500    0.0060 C.2    18  ASP18       0.2622
     16  O         -7.9950    4.4650   -0.3580 O.2    18  ASP18      -0.2715
     17  N         -6.8140    3.2050    1.0390 N.am   19  ILE19      -0.1963
     18  CA        -6.1800    4.3790    1.8160 C.3    19  ILE19       0.1727
     19  CB        -5.3140    3.8890    3.0670 C.3    19  ILE19       0.0290
     20  CG2       -4.6600    5.0630    3.8540 C.3    19  ILE19       0.0023
     21  CG1       -6.1440    2.9790    3.9890 C.3    19  ILE19       0.0022
     22  CD1       -5.5170    2.2940    5.2130 C.3    19  ILE19       0.0001
     23  C         -5.2670    5.2520    0.8640 C.2    19  ILE19       0.2616
     24  O         -5.3920    6.4650    0.9090 O.2    19  ILE19      -0.2715
     25  N         -4.4890    4.6060    0.0020 N.am   20  ILE20      -0.1963
     26  CA        -3.9690    5.2910   -1.1850 C.3    20  ILE20       0.1727
     27  CB        -2.4460    5.7340   -1.0120 C.3    20  ILE20       0.0290
     28  CG2       -2.3030    7.0110   -0.1100 C.3    20  ILE20       0.0023
     29  CG1       -1.4300    4.6170   -0.6100 C.3    20  ILE20       0.0022
     30  CD1        0.0800    4.9990   -0.7110 C.3    20  ILE20       0.0001
     31  C         -4.1660    4.3690   -2.4130 C.2    20  ILE20       0.2617
     32  O         -3.9200    3.1710   -2.5010 O.2    20  ILE20      -0.2715
     33  N         -4.6410    5.0460   -3.5090 N.am   21  TRP21      -0.1938
     34  CA        -4.8980    4.4430   -4.8120 C.3    21  TRP21       0.2021
     35  CB        -6.2680    3.7450   -4.8170 C.3    21  TRP21       0.0612
     36  CG        -6.5090    2.9660   -6.0890 C.ar   21  TRP21       0.0007
     37  CD1       -7.0550    3.4090   -7.2190 C.ar   21  TRP21       0.0946
     38  NE1       -7.1560    2.4190   -8.1260 N.ar   21  TRP21      -0.2442
     39  CE2       -6.6880    1.2600   -7.6470 C.ar   21  TRP21       0.0810
     40  CZ2       -6.5320   -0.1050   -8.0600 C.ar   21  TRP21       0.0191
     41  CH2       -5.9630   -1.0770   -7.2340 C.ar   21  TRP21       0.0015
     42  CZ3       -5.4330   -0.7150   -5.9030 C.ar   21  TRP21       0.0001
     43  CE3       -5.5290    0.6400   -5.5430 C.ar   21  TRP21       0.0012
     44  CD2       -6.2440    1.5830   -6.3190 C.ar   21  TRP21       0.0152
     45  C         -4.7460    5.5030   -5.9410 C.2    21  TRP21       0.3845
     46  O         -5.6740    6.3580   -6.0770 O.co2  21  TRP21      -0.2437
     47  OXT       -3.7150    5.4030   -6.6310 O.co2  21  TRP21      -0.2437
@<TRIPOS>BOND
     1    38    39   ar
     2    38    37   ar
     3    40    39   ar
     4    40    41   ar
     5    39    44   ar
     6    41    42   ar
     7    37    36   ar
     8    47    45   ar
     9    44    36   ar
    10    44    43   ar
    11    36    35    1
    12    46    45   ar
    13    45    34    1
    14    42    43   ar
    15    35    34    1
    16    34    33    1
    17    33    31   am
    18     5     4    1
    19     8     7    2
    20    32    31    2
    21    31    26    1
    22     7     2    1
    23     7     9   am
    24     2     1    1
    25     2     3    1
    26     4     3    1
    27     4     6    1
    28    26    27    1
    29    26    25    1
    30    27    29    1
    31    27    28    1
    32     9    10    1
    33    30    29    1
    34    10    15    1
    35    10    11    1
    36    16    15    2
    37    25    23   am
    38    15    17   am
    39    13    12   ar
    40    11    12    1
    41    23    24    2
    42    23    18    1
    43    12    14   ar
    44    17    18    1
    45    18    19    1
    46    19    20    1
    47    19    21    1
    48    21    22    1
