@<TRIPOS>MOLECULE
16219006
 85 88 0 0 0
SMALL
GASTEIGER

@<TRIPOS>ATOM
      1 O           5.1672  -17.0199   -6.5158 O.2     1  PRO11      -0.2738
      2 O           1.5427  -15.2589   -4.6585 O.2     5  ASP55      -0.2735
      3 O           4.7607  -13.3011   -3.2525 O.2     2  VAL22      -0.2738
      4 O           1.6445  -19.4231   -1.7497 O.2     4  TRP44      -0.2738
      5 O           5.4010  -17.7690   -1.8979 O.2     3  LEU33      -0.2738
      6 OD1         0.9270  -14.9306   -1.3570 O.co2   5  ASP55      -0.5497
      7 OD2        -1.0714  -14.0670   -2.0662 O.co2   5  ASP55      -0.5497
      8 N           2.0501  -17.3558   -5.3252 N.am    1  PRO11      -0.2884
      9 N           4.2016  -15.1292   -5.6652 N.am    2  VAL22      -0.3022
     10 N           1.7127  -17.1789   -2.1795 N.am    5  ASP55      -0.3021
     11 N           5.8694  -15.2865   -2.9669 N.am    3  LEU33      -0.3025
     12 N           3.8259  -16.7900   -0.5471 N.am    4  TRP44      -0.3022
     13 NE1         4.1168  -16.6916    3.8991 N.ar    4  TRP44      -0.3604
     14 CA          2.7213  -16.8894   -6.5394 C.3     1  PRO11       0.1023
     15 CB          2.7197  -18.1212   -7.4476 C.3     1  PRO11      -0.0243
     16 CG          2.7885  -19.2857   -6.4661 C.3     1  PRO11      -0.0350
     17 CD          1.9384  -18.8058   -5.2997 C.3     1  PRO11       0.0156
     18 C           4.1528  -16.3808   -6.2404 C.2     1  PRO11       0.2342
     19 C           1.4252  -16.4720   -4.4627 C.2     5  ASP55       0.2369
     20 CA          5.4562  -14.5043   -5.2466 C.3     2  VAL22       0.1017
     21 CA          0.7138  -17.0705   -3.2268 C.3     5  ASP55       0.1047
     22 CB          5.7186  -13.1753   -5.9894 C.3     2  VAL22      -0.0197
     23 CA          5.5743  -15.3806   -1.5426 C.3     3  LEU33       0.0996
     24 C           5.3340  -14.2752   -3.7319 C.2     2  VAL22       0.2342
     25 CB         -0.4763  -16.2306   -2.7754 C.3     5  ASP55       0.0138
     26 CA          3.0838  -18.0416   -0.3488 C.3     4  TRP44       0.1034
     27 CB          6.8475  -15.3048   -0.6877 C.3     3  LEU33      -0.0236
     28 CG          7.6230  -13.9754   -0.7909 C.3     3  LEU33      -0.0446
     29 C           2.1038  -18.3067   -1.5156 C.2     4  TRP44       0.2343
     30 CB          2.3081  -18.0227    0.9750 C.3     4  TRP44       0.0013
     31 C           4.9316  -16.7639   -1.3608 C.2     3  LEU33       0.2340
     32 CG1         7.0038  -12.5046   -5.4810 C.3     2  VAL22      -0.0605
     33 CG2         5.8436  -13.3979   -7.5002 C.3     2  VAL22      -0.0605
     34 CG          3.1839  -17.7392    2.1656 C.ar    4  TRP44      -0.0201
     35 CG         -0.1598  -14.9380   -2.0185 C.2     5  ASP55       0.0440
     36 CD1         8.9234  -14.0706    0.0132 C.3     3  LEU33      -0.0626
     37 CD2         6.8057  -12.7811   -0.2977 C.3     3  LEU33      -0.0626
     38 CD2         4.2483  -18.5510    2.6782 C.ar    4  TRP44       0.0029
     39 CD1         3.1325  -16.6056    2.9543 C.ar    4  TRP44       0.0060
     40 CE2         4.8192  -17.8645    3.7512 C.ar    4  TRP44       0.0467
     41 CE3         4.7963  -19.7989    2.3155 C.ar    4  TRP44      -0.0523
     42 CZ2         5.9116  -18.3596    4.4745 C.ar    4  TRP44      -0.0378
     43 CZ3         5.8907  -20.3071    3.0252 C.ar    4  TRP44      -0.0611
     44 CH2         6.4394  -19.5950    4.0883 C.ar    4  TRP44      -0.0598
     45 H           3.3282  -14.7695   -5.2620 H       2  VAL22       0.1495
     46 H           1.8875  -16.2680   -1.7360 H       5  ASP55       0.1495
     47 H           6.0837  -16.1676   -3.4295 H       3  LEU33       0.1495
     48 H           3.3248  -15.9192   -0.3784 H       4  TRP44       0.1495
     49 HE1         4.3135  -15.9882    4.5964 H       4  TRP44       0.1653
     50 HA          2.1563  -16.0706   -7.0007 H       1  PRO11       0.0597
     51 HB1         1.7720  -18.1701   -7.9988 H       1  PRO11       0.0288
     52 HB2         3.5345  -18.1398   -8.1770 H       1  PRO11       0.0288
     53 HG1         2.4212  -20.2231   -6.8937 H       1  PRO11       0.0281
     54 HG2         3.8224  -19.4431   -6.1388 H       1  PRO11       0.0281
     55 HD1         2.2801  -19.2098   -4.3460 H       1  PRO11       0.0465
     56 HD2         0.8852  -19.0693   -5.4509 H       1  PRO11       0.0465
     57 HA          6.2923  -15.1890   -5.4339 H       2  VAL22       0.0597
     58 HA          0.3355  -18.0675   -3.4677 H       5  ASP55       0.0598
     59 HB          4.8823  -12.4852   -5.8169 H       2  VAL22       0.0318
     60 HA          4.8579  -14.6092   -1.2451 H       3  LEU33       0.0594
     61 HB1        -1.1077  -15.9941   -3.6425 H       5  ASP55       0.0348
     62 HB2        -1.0916  -16.8293   -2.0894 H       5  ASP55       0.0348
     63 HA          3.8084  -18.8642   -0.3600 H       4  TRP44       0.0598
     64 HB1         6.5840  -15.4912    0.3622 H       3  LEU33       0.0290
     65 HB2         7.5213  -16.1235   -0.9771 H       3  LEU33       0.0290
     66 HG          7.8952  -13.7983   -1.8388 H       3  LEU33       0.0296
     67 HB1         1.5128  -17.2666    0.9257 H       4  TRP44       0.0337
     68 HB2         1.8034  -18.9852    1.1251 H       4  TRP44       0.0337
     69 HG11        7.8680  -13.1686   -5.5937 H       2  VAL22       0.0233
     70 HG12        7.2094  -11.5840   -6.0373 H       2  VAL22       0.0233
     71 HG13        6.9264  -12.2308   -4.4240 H       2  VAL22       0.0233
     72 HG21        6.6518  -14.1005   -7.7308 H       2  VAL22       0.0233
     73 HG22        4.9155  -13.7941   -7.9230 H       2  VAL22       0.0233
     74 HG23        6.0613  -12.4548   -8.0134 H       2  VAL22       0.0233
     75 HD11        8.7219  -14.2351    1.0773 H       3  LEU33       0.0232
     76 HD12        9.5457  -14.8967   -0.3465 H       3  LEU33       0.0232
     77 HD13        9.5080  -13.1490   -0.0815 H       3  LEU33       0.0232
     78 HD21        6.4598  -12.9341    0.7300 H       3  LEU33       0.0232
     79 HD22        7.4066  -11.8652   -0.3191 H       3  LEU33       0.0232
     80 HD23        5.9305  -12.6057   -0.9282 H       3  LEU33       0.0232
     81 HD1         2.4875  -15.7372    2.9035 H       4  TRP44       0.0810
     82 HE3         4.3834  -20.3608    1.4831 H       4  TRP44       0.0624
     83 HZ2         6.3430  -17.8041    5.3003 H       4  TRP44       0.0638
     84 HZ3         6.3171  -21.2633    2.7342 H       4  TRP44       0.0618
     85 HH2         7.2929  -20.0036    4.6236 H       4  TRP44       0.0618
@<TRIPOS>BOND
     1     1    18    2
     2     2    19    2
     3     3    24    2
     4     4    29    2
     5     5    31    2
     6     6    35   ar
     7     7    35   ar
     8     8    14    1
     9     8    17    1
    10     8    19   am
    11     9    18   am
    12     9    20    1
    13    10    21    1
    14    10    29   am
    15    11    23    1
    16    11    24   am
    17    12    26    1
    18    12    31   am
    19    13    39   ar
    20    13    40   ar
    21    14    15    1
    22    14    18    1
    23    15    16    1
    24    16    17    1
    25    19    21    1
    26    20    22    1
    27    20    24    1
    28    21    25    1
    29    22    32    1
    30    22    33    1
    31    23    27    1
    32    23    31    1
    33    25    35    1
    34    26    29    1
    35    26    30    1
    36    27    28    1
    37    28    36    1
    38    28    37    1
    39    30    34    1
    40    34    38   ar
    41    34    39   ar
    42    38    40   ar
    43    38    41   ar
    44    40    42   ar
    45    41    43   ar
    46    42    44   ar
    47    43    44   ar
    48     9    45    1
    49    10    46    1
    50    11    47    1
    51    12    48    1
    52    13    49    1
    53    14    50    1
    54    15    51    1
    55    15    52    1
    56    16    53    1
    57    16    54    1
    58    17    55    1
    59    17    56    1
    60    20    57    1
    61    21    58    1
    62    22    59    1
    63    23    60    1
    64    25    61    1
    65    25    62    1
    66    26    63    1
    67    27    64    1
    68    27    65    1
    69    28    66    1
    70    30    67    1
    71    30    68    1
    72    32    69    1
    73    32    70    1
    74    32    71    1
    75    33    72    1
    76    33    73    1
    77    33    74    1
    78    36    75    1
    79    36    76    1
    80    36    77    1
    81    37    78    1
    82    37    79    1
    83    37    80    1
    84    39    81    1
    85    41    82    1
    86    42    83    1
    87    43    84    1
    88    44    85    1
@<TRIPOS>MOLECULE
../1EDN/XRAY_17-21.pdb
 47 48 0 0 0
SMALL
GASTEIGER

@<TRIPOS>ATOM
      1  N          6.4500  -19.7300   -2.8460 N.3    17  LEU17      -0.1231
      2  CA         5.2640  -20.1680   -2.1160 C.3    17  LEU17       0.1693
      3  C          4.7010  -18.8060   -1.6720 C.2    17  LEU17       0.2592
      4  O          4.3760  -17.9800   -2.5270 O.2    17  LEU17      -0.2718
      5  CB         5.6570  -21.0170   -0.8850 C.3    17  LEU17       0.0284
      6  CG         5.4050  -22.5400   -0.8470 C.3    17  LEU17       0.0019
      7  CD1        6.1110  -23.2140    0.3150 C.3    17  LEU17       0.0001
      8  CD2        3.9240  -22.7940   -0.7690 C.3    17  LEU17       0.0001
      9  N          4.7270  -18.4910   -0.3800 N.am   18  ASP18      -0.1962
     10  CA         4.1720  -17.2010    0.0630 C.3    18  ASP18       0.1783
     11  C          4.7750  -15.8130   -0.3500 C.2    18  ASP18       0.2620
     12  O          4.1570  -14.7710   -0.0750 O.2    18  ASP18      -0.2715
     13  CB         3.8720  -17.2370    1.5730 C.3    18  ASP18       0.0728
     14  CG         2.4440  -17.7210    1.8880 C.2    18  ASP18       0.0526
     15  OD1        1.8320  -18.4410    1.0660 O.co2  18  ASP18      -0.5491
     16  OD2        1.9260  -17.3730    2.9700 O.co2  18  ASP18      -0.5491
     17  N          5.9570  -15.7420   -0.9630 N.am   19  ILE19      -0.1963
     18  CA         6.4450  -14.4030   -1.3510 C.3    19  ILE19       0.1727
     19  C          5.5760  -13.9960   -2.5290 C.2    19  ILE19       0.2616
     20  O          4.8370  -13.0080   -2.4770 O.2    19  ILE19      -0.2715
     21  CB         7.9140  -14.3690   -1.8400 C.3    19  ILE19       0.0290
     22  CG1        8.8760  -14.8240   -0.7490 C.3    19  ILE19       0.0022
     23  CG2        8.2810  -12.9320   -2.2380 C.3    19  ILE19       0.0023
     24  CD1        9.3280  -13.7050    0.1860 C.3    19  ILE19       0.0001
     25  N          5.7170  -14.7750   -3.5990 N.am   20  ILE20      -0.1963
     26  CA         4.9770  -14.6140   -4.8450 C.3    20  ILE20       0.1727
     27  C          4.7560  -16.0550   -5.2510 C.2    20  ILE20       0.2615
     28  O          5.5820  -16.9240   -4.9410 O.2    20  ILE20      -0.2715
     29  CB         5.8140  -13.8870   -5.9550 C.3    20  ILE20       0.0290
     30  CG1        5.9530  -12.3980   -5.6400 C.3    20  ILE20       0.0022
     31  CG2        5.1640  -14.0490   -7.3150 C.3    20  ILE20       0.0023
     32  CD1        6.8340  -11.6390   -6.6010 C.3    20  ILE20       0.0001
     33  N          3.6520  -16.3070   -5.9350 N.am   21  TRP21      -0.1988
     34  CA         3.3300  -17.6370   -6.4010 C.3    21  TRP21       0.1456
     35  C          2.5650  -17.6270   -7.7180 C.2    21  TRP21       0.1166
     36  O          1.8980  -18.6320   -8.0750 O.co2  21  TRP21      -0.3065
     37  CB         2.6690  -18.5180   -5.3120 C.3    21  TRP21       0.0562
     38  CG         1.5690  -17.9980   -4.3600 C.ar   21  TRP21       0.0005
     39  CD1        0.7990  -18.7930   -3.5490 C.ar   21  TRP21       0.0946
     40  CD2        1.2480  -16.6350   -3.9890 C.ar   21  TRP21       0.0152
     41  CE2        0.3020  -16.7070   -2.9250 C.ar   21  TRP21       0.0810
     42  CE3        1.6680  -15.3700   -4.4360 C.ar   21  TRP21       0.0012
     43  NE1        0.0520  -18.0350   -2.6840 N.ar   21  TRP21      -0.2442
     44  CZ2       -0.2230  -15.5590   -2.2950 C.ar   21  TRP21       0.0191
     45  CZ3        1.1420  -14.2140   -3.8060 C.ar   21  TRP21       0.0001
     46  CH2        0.2070  -14.3240   -2.7450 C.ar   21  TRP21       0.0015
     47  OXT        2.7400  -16.6140   -8.4280 O.co2  21  TRP21      -0.8460
@<TRIPOS>BOND
     1    47    35   ar
     2    36    35   ar
     3    35    34    1
     4    31    29    1
     5    32    30    1
     6    34    33    1
     7    34    37    1
     8    29    30    1
     9    29    26    1
    10    33    27   am
    11    37    38    1
    12    27    28    2
    13    27    26    1
    14    26    25    1
    15    42    40   ar
    16    42    45   ar
    17    38    40   ar
    18    38    39   ar
    19    40    41   ar
    20    45    46   ar
    21    25    19   am
    22    39    43   ar
    23    41    43   ar
    24    41    44   ar
    25     1     2    1
    26    46    44   ar
    27    19    20    2
    28    19    18    1
    29     4     3    2
    30    23    21    1
    31     2     3    1
    32     2     5    1
    33    21    18    1
    34    21    22    1
    35     3     9   am
    36    18    17    1
    37    17    11   am
    38     5     6    1
    39     6     8    1
    40     6     7    1
    41    22    24    1
    42     9    10    1
    43    11    12    2
    44    11    10    1
    45    10    13    1
    46    15    14   ar
    47    13    14    1
    48    14    16   ar
