@<TRIPOS>MOLECULE
23693553
 97 99 0 0 0
SMALL
GASTEIGER

@<TRIPOS>ATOM
      1 O           7.0105  -15.4348   -3.7424 O.2     1  LIG11      -0.2526
      2 O           2.1002  -14.4570   -4.8903 O.2     1  LIG11      -0.2731
      3 O           5.1207  -17.3670   -4.3420 O.2     1  LIG11      -0.2689
      4 O          -0.5740  -17.0862   -3.9337 O.co2   1  LIG11      -0.5479
      5 OXT         1.0486  -16.2532   -2.5665 O.co2   1  LIG11      -0.5479
      6 O           3.4464  -19.3230    3.3648 O.3     1  LIG11      -0.4515
      7 O           4.0266  -21.5585    3.2590 O.2     1  LIG11      -0.2227
      8 N           6.8314  -14.0463   -1.9328 N.am    1  LIG11      -0.2801
      9 N           5.1321  -14.1741   -3.5437 N.am    1  LIG11      -0.2879
     10 N           3.0275  -16.5004   -4.4047 N.am    1  LIG11      -0.2273
     11 N           2.4727  -17.9062   -1.7811 N.4     1  LIG11       0.2276
     12 N           4.4271  -20.1398    1.4785 N.ar    1  LIG11      -0.2526
     13 C           6.1657  -12.9583   -1.1810 C.3     1  LIG11       0.0249
     14 C           8.1978  -14.4668   -1.5435 C.3     1  LIG11       0.0249
     15 C           6.6311  -12.8145    0.2776 C.3     1  LIG11      -0.0344
     16 C           8.5179  -14.3377   -0.0459 C.3     1  LIG11      -0.0344
     17 C           7.2808  -14.0843    0.7948 C.3     1  LIG11      -0.0497
     18 CA          4.4873  -14.4158   -4.8371 C.3     1  LIG11       0.1019
     19 C           6.0347  -13.8247   -6.9215 C.3     1  LIG11      -0.0356
     20 C           5.2910  -14.8964   -6.0662 C.3     1  LIG11      -0.0210
     21 C           6.3544  -14.6047   -3.1235 C.2     1  LIG11       0.3033
     22 C           6.2782  -11.6080   -1.8979 C.3     1  LIG11      -0.0464
     23 C           9.2723  -13.7646   -2.3841 C.3     1  LIG11      -0.0464
     24 C           3.1189  -15.1392   -4.7129 C.2     1  LIG11       0.2429
     25 C           5.0619  -12.7842   -7.5077 C.3     1  LIG11      -0.0600
     26 C           7.1225  -13.1001   -6.1187 C.3     1  LIG11      -0.0600
     27 C           6.7081  -14.5567   -8.1037 C.3     1  LIG11      -0.0600
     28 CA          1.7090  -17.1406   -4.6604 C.3     1  LIG11       0.0730
     29 C           1.3103  -17.1332   -6.1488 C.3     1  LIG11      -0.0286
     30 C           4.0335  -17.2141   -3.7785 C.2     1  LIG11       0.2708
     31 CA          3.7609  -18.0745   -2.5144 C.3     1  LIG11       0.0579
     32 C           2.3853  -17.7901   -7.0285 C.3     1  LIG11      -0.0513
     33 C           4.9128  -17.9179   -1.4916 C.3     1  LIG11       0.0261
     34 C           0.5864  -16.6865   -3.6797 C.2     1  LIG11       0.0626
     35 C           4.8635  -18.9985   -0.4383 C.ar    1  LIG11      -0.0158
     36 C           1.9702  -17.9306   -8.4921 C.3     1  LIG11      -0.0558
     37 C           5.2332  -20.3633   -0.6259 C.ar    1  LIG11       0.0038
     38 C           4.4110  -18.8893    0.8612 C.ar    1  LIG11       0.0202
     39 C           4.9374  -21.0549    0.5529 C.ar    1  LIG11       0.0598
     40 C           1.0064  -19.0840   -8.7193 C.3     1  LIG11      -0.0653
     41 C           5.7721  -21.0712   -1.7219 C.ar    1  LIG11      -0.0523
     42 C           5.1512  -22.4456    0.6505 C.ar    1  LIG11      -0.0371
     43 C           5.9851  -22.4482   -1.6239 C.ar    1  LIG11      -0.0611
     44 C           3.9715  -20.4353    2.7850 C.2     1  LIG11       0.4196
     45 C           5.6728  -23.1251   -0.4531 C.ar    1  LIG11      -0.0598
     46 C           2.8962  -19.5679    4.6609 C.3     1  LIG11       0.0835
     47 H           4.6353  -13.5151   -2.9705 H       1  LIG11       0.1510
     48 H1          2.4912  -18.1150   -0.7824 H       1  LIG11       0.2002
     49 H2          1.7011  -18.4532   -2.1807 H       1  LIG11       0.2002
     50 H3          2.0693  -16.9319   -1.8728 H       1  LIG11       0.2002
     51 H           5.1034  -13.2239   -1.1282 H       1  LIG11       0.0498
     52 H           8.2711  -15.5387   -1.7735 H       1  LIG11       0.0498
     53 H           5.7762  -12.5450    0.9093 H       1  LIG11       0.0283
     54 H           7.3470  -11.9870    0.3722 H       1  LIG11       0.0283
     55 H           9.2327  -13.5208    0.1219 H       1  LIG11       0.0283
     56 H           9.0239  -15.2476    0.2999 H       1  LIG11       0.0283
     57 H           6.5878  -14.9318    0.7375 H       1  LIG11       0.0266
     58 H           7.5642  -13.9606    1.8455 H       1  LIG11       0.0266
     59 HA          4.1704  -13.3954   -5.0891 H       1  LIG11       0.0595
     60 H           4.5826  -15.3848   -6.7485 H       1  LIG11       0.0293
     61 H           6.0015  -15.6803   -5.7983 H       1  LIG11       0.0293
     62 H           7.3225  -11.2898   -1.9823 H       1  LIG11       0.0248
     63 H           5.7330  -10.8335   -1.3473 H       1  LIG11       0.0248
     64 H           5.8680  -11.6437   -2.9109 H       1  LIG11       0.0248
     65 H           9.2653  -12.6833   -2.2159 H       1  LIG11       0.0248
     66 H           9.1218  -13.9306   -3.4552 H       1  LIG11       0.0248
     67 H          10.2689  -14.1418   -2.1292 H       1  LIG11       0.0248
     68 H           4.2253  -13.2694   -8.0227 H       1  LIG11       0.0235
     69 H           5.5689  -12.1404   -8.2365 H       1  LIG11       0.0235
     70 H           4.6498  -12.1247   -6.7381 H       1  LIG11       0.0235
     71 H           7.8547  -13.8080   -5.7173 H       1  LIG11       0.0235
     72 H           6.6998  -12.5306   -5.2858 H       1  LIG11       0.0235
     73 H           7.6697  -12.3914   -6.7513 H       1  LIG11       0.0235
     74 H           7.4155  -15.3151   -7.7493 H       1  LIG11       0.0235
     75 H           7.2610  -13.8596   -8.7431 H       1  LIG11       0.0235
     76 H           5.9642  -15.0619   -8.7308 H       1  LIG11       0.0235
     77 HA          1.8392  -18.2053   -4.4159 H       1  LIG11       0.0567
     78 H           1.1251  -16.1119   -6.5000 H       1  LIG11       0.0287
     79 H           0.3632  -17.6710   -6.2681 H       1  LIG11       0.0287
     80 HA          3.7284  -19.1102   -2.8745 H       1  LIG11       0.0952
     81 H           2.6560  -18.7732   -6.6241 H       1  LIG11       0.0266
     82 H           3.2940  -17.1815   -6.9980 H       1  LIG11       0.0266
     83 H           4.8522  -16.9310   -1.0136 H       1  LIG11       0.0374
     84 H           5.8895  -17.9573   -1.9878 H       1  LIG11       0.0374
     85 H           2.8696  -18.1125   -9.0931 H       1  LIG11       0.0263
     86 H           1.5287  -16.9956   -8.8549 H       1  LIG11       0.0263
     87 H           4.0583  -18.0273    1.4150 H       1  LIG11       0.0818
     88 H           1.4445  -20.0296   -8.3822 H       1  LIG11       0.0230
     89 H           0.7797  -19.1803   -9.7857 H       1  LIG11       0.0230
     90 H           0.0636  -18.9329   -8.1865 H       1  LIG11       0.0230
     91 H           6.0320  -20.5583   -2.6450 H       1  LIG11       0.0624
     92 H           4.9190  -22.9980    1.5577 H       1  LIG11       0.0638
     93 H           6.4003  -22.9914   -2.4695 H       1  LIG11       0.0618
     94 H           5.8408  -24.1982   -0.3887 H       1  LIG11       0.0618
     95 H           2.4420  -18.6405    5.0192 H       1  LIG11       0.0661
     96 H           3.6842  -19.8641    5.3605 H       1  LIG11       0.0661
     97 H           2.1163  -20.3353    4.6107 H       1  LIG11       0.0661
@<TRIPOS>BOND
     1     1    21    2
     2     2    24    2
     3     3    30    2
     4     4    34   ar
     5     5    34   ar
     6     6    44    1
     7     6    46    1
     8     7    44    2
     9     8    13    1
    10     8    14    1
    11     9    21   am
    12    10    24   am
    13    10    30   am
    14    12    39   ar
    15    12    38   ar
    16    12    44   am
    17    13    15    1
    18    13    22    1
    19    14    16    1
    20    14    23    1
    21    15    17    1
    22    16    17    1
    23    18     9    1
    24    18    24    1
    25    18    20    1
    26    19    20    1
    27    19    27    1
    28    19    26    1
    29    19    25    1
    30    21     8   am
    31    28    34    1
    32    28    29    1
    33    28    10    1
    34    29    32    1
    35    31    33    1
    36    31    11    1
    37    31    30    1
    38    32    36    1
    39    33    35    1
    40    35    38   ar
    41    35    37   ar
    42    36    40    1
    43    37    39   ar
    44    37    41   ar
    45    39    42   ar
    46    41    43   ar
    47    42    45   ar
    48    43    45   ar
    49     9    47    1
    50    11    48    1
    51    11    49    1
    52    11    50    1
    53    13    51    1
    54    14    52    1
    55    15    53    1
    56    15    54    1
    57    16    55    1
    58    16    56    1
    59    17    57    1
    60    17    58    1
    61    18    59    1
    62    20    60    1
    63    20    61    1
    64    22    62    1
    65    22    63    1
    66    22    64    1
    67    23    65    1
    68    23    66    1
    69    23    67    1
    70    25    68    1
    71    25    69    1
    72    25    70    1
    73    26    71    1
    74    26    72    1
    75    26    73    1
    76    27    74    1
    77    27    75    1
    78    27    76    1
    79    28    77    1
    80    29    78    1
    81    29    79    1
    82    31    80    1
    83    32    81    1
    84    32    82    1
    85    33    83    1
    86    33    84    1
    87    36    85    1
    88    36    86    1
    89    38    87    1
    90    40    88    1
    91    40    89    1
    92    40    90    1
    93    41    91    1
    94    42    92    1
    95    43    93    1
    96    45    94    1
    97    46    95    1
    98    46    96    1
    99    46    97    1
@<TRIPOS>MOLECULE
../1EDN/XRAY_17-21.pdb
 47 48 0 0 0
SMALL
GASTEIGER

@<TRIPOS>ATOM
      1  N          6.4500  -19.7300   -2.8460 N.3    17  LEU17      -0.1231
      2  CA         5.2640  -20.1680   -2.1160 C.3    17  LEU17       0.1693
      3  C          4.7010  -18.8060   -1.6720 C.2    17  LEU17       0.2592
      4  O          4.3760  -17.9800   -2.5270 O.2    17  LEU17      -0.2718
      5  CB         5.6570  -21.0170   -0.8850 C.3    17  LEU17       0.0284
      6  CG         5.4050  -22.5400   -0.8470 C.3    17  LEU17       0.0019
      7  CD1        6.1110  -23.2140    0.3150 C.3    17  LEU17       0.0001
      8  CD2        3.9240  -22.7940   -0.7690 C.3    17  LEU17       0.0001
      9  N          4.7270  -18.4910   -0.3800 N.am   18  ASP18      -0.1962
     10  CA         4.1720  -17.2010    0.0630 C.3    18  ASP18       0.1783
     11  C          4.7750  -15.8130   -0.3500 C.2    18  ASP18       0.2620
     12  O          4.1570  -14.7710   -0.0750 O.2    18  ASP18      -0.2715
     13  CB         3.8720  -17.2370    1.5730 C.3    18  ASP18       0.0728
     14  CG         2.4440  -17.7210    1.8880 C.2    18  ASP18       0.0526
     15  OD1        1.8320  -18.4410    1.0660 O.co2  18  ASP18      -0.5491
     16  OD2        1.9260  -17.3730    2.9700 O.co2  18  ASP18      -0.5491
     17  N          5.9570  -15.7420   -0.9630 N.am   19  ILE19      -0.1963
     18  CA         6.4450  -14.4030   -1.3510 C.3    19  ILE19       0.1727
     19  C          5.5760  -13.9960   -2.5290 C.2    19  ILE19       0.2616
     20  O          4.8370  -13.0080   -2.4770 O.2    19  ILE19      -0.2715
     21  CB         7.9140  -14.3690   -1.8400 C.3    19  ILE19       0.0290
     22  CG1        8.8760  -14.8240   -0.7490 C.3    19  ILE19       0.0022
     23  CG2        8.2810  -12.9320   -2.2380 C.3    19  ILE19       0.0023
     24  CD1        9.3280  -13.7050    0.1860 C.3    19  ILE19       0.0001
     25  N          5.7170  -14.7750   -3.5990 N.am   20  ILE20      -0.1963
     26  CA         4.9770  -14.6140   -4.8450 C.3    20  ILE20       0.1727
     27  C          4.7560  -16.0550   -5.2510 C.2    20  ILE20       0.2615
     28  O          5.5820  -16.9240   -4.9410 O.2    20  ILE20      -0.2715
     29  CB         5.8140  -13.8870   -5.9550 C.3    20  ILE20       0.0290
     30  CG1        5.9530  -12.3980   -5.6400 C.3    20  ILE20       0.0022
     31  CG2        5.1640  -14.0490   -7.3150 C.3    20  ILE20       0.0023
     32  CD1        6.8340  -11.6390   -6.6010 C.3    20  ILE20       0.0001
     33  N          3.6520  -16.3070   -5.9350 N.am   21  TRP21      -0.1988
     34  CA         3.3300  -17.6370   -6.4010 C.3    21  TRP21       0.1456
     35  C          2.5650  -17.6270   -7.7180 C.2    21  TRP21       0.1166
     36  O          1.8980  -18.6320   -8.0750 O.co2  21  TRP21      -0.3065
     37  CB         2.6690  -18.5180   -5.3120 C.3    21  TRP21       0.0562
     38  CG         1.5690  -17.9980   -4.3600 C.ar   21  TRP21       0.0005
     39  CD1        0.7990  -18.7930   -3.5490 C.ar   21  TRP21       0.0946
     40  CD2        1.2480  -16.6350   -3.9890 C.ar   21  TRP21       0.0152
     41  CE2        0.3020  -16.7070   -2.9250 C.ar   21  TRP21       0.0810
     42  CE3        1.6680  -15.3700   -4.4360 C.ar   21  TRP21       0.0012
     43  NE1        0.0520  -18.0350   -2.6840 N.ar   21  TRP21      -0.2442
     44  CZ2       -0.2230  -15.5590   -2.2950 C.ar   21  TRP21       0.0191
     45  CZ3        1.1420  -14.2140   -3.8060 C.ar   21  TRP21       0.0001
     46  CH2        0.2070  -14.3240   -2.7450 C.ar   21  TRP21       0.0015
     47  OXT        2.7400  -16.6140   -8.4280 O.co2  21  TRP21      -0.8460
@<TRIPOS>BOND
     1    47    35   ar
     2    36    35   ar
     3    35    34    1
     4    31    29    1
     5    32    30    1
     6    34    33    1
     7    34    37    1
     8    29    30    1
     9    29    26    1
    10    33    27   am
    11    37    38    1
    12    27    28    2
    13    27    26    1
    14    26    25    1
    15    42    40   ar
    16    42    45   ar
    17    38    40   ar
    18    38    39   ar
    19    40    41   ar
    20    45    46   ar
    21    25    19   am
    22    39    43   ar
    23    41    43   ar
    24    41    44   ar
    25     1     2    1
    26    46    44   ar
    27    19    20    2
    28    19    18    1
    29     4     3    2
    30    23    21    1
    31     2     3    1
    32     2     5    1
    33    21    18    1
    34    21    22    1
    35     3     9   am
    36    18    17    1
    37    17    11   am
    38     5     6    1
    39     6     8    1
    40     6     7    1
    41    22    24    1
    42     9    10    1
    43    11    12    2
    44    11    10    1
    45    10    13    1
    46    15    14   ar
    47    13    14    1
    48    14    16   ar
