@<TRIPOS>MOLECULE
*****
 48 50 0 0 0
SMALL
GASTEIGER

@<TRIPOS>ATOM
      1 C           3.2112  -17.7659   -5.4393 C.ar    1  LIG11      -0.0615
      2 C           1.9089  -17.8733   -4.9635 C.ar    1  LIG11      -0.0617
      3 C           1.3958  -16.8821   -4.1328 C.ar    1  LIG11      -0.0615
      4 C           2.1802  -15.7765   -3.7874 C.ar    1  LIG11      -0.0576
      5 C           3.4952  -15.6324   -4.2686 C.ar    1  LIG11      -0.0332
      6 C           3.9970  -16.6644   -5.0883 C.ar    1  LIG11      -0.0576
      7 C           6.6649  -14.2695   -5.1586 C.ar    1  LIG11      -0.0576
      8 C           7.4077  -13.9064   -6.2874 C.ar    1  LIG11      -0.0615
      9 C           6.7905  -13.2790   -7.3637 C.ar    1  LIG11      -0.0617
     10 C           5.4255  -13.0208   -7.3153 C.ar    1  LIG11      -0.0615
     11 C           4.6830  -13.3865   -6.1881 C.ar    1  LIG11      -0.0576
     12 N           4.8576  -17.5159   -1.7795 N.ar    1  LIG11      -0.2002
     13 C           4.4429  -16.5124   -0.9892 C.ar    1  LIG11       0.3190
     14 N           3.9498  -16.6687    0.2510 N.ar    1  LIG11      -0.2002
     15 C           3.9401  -17.9197    0.7427 C.ar    1  LIG11       0.0453
     16 C           4.3684  -19.0115    0.0105 C.ar    1  LIG11      -0.0193
     17 C           4.8311  -18.7549   -1.2636 C.ar    1  LIG11       0.0453
     18 C           5.2719  -19.8616   -2.1686 C.3     1  LIG11      -0.0221
     19 C           3.4232  -18.1014    2.1364 C.3     1  LIG11      -0.0221
     20 O           4.3106  -15.2471   -1.5056 O.3     1  LIG11      -0.4519
     21 C           5.2300  -14.9220   -2.5862 C.3     1  LIG11       0.1554
     22 C           4.4160  -14.4277   -3.8408 C.3     1  LIG11       0.0601
     23 C           6.2555  -13.9161   -1.9907 C.2     1  LIG11       0.0833
     24 O           7.4310  -14.3768   -1.8499 O.co2   1  LIG11      -0.5460
     25 O           5.8344  -12.7598   -1.6999 O.co2   1  LIG11      -0.5460
     26 C           5.2870  -14.0057   -5.0717 C.ar    1  LIG11      -0.0332
     27 C           3.5410  -13.1947   -3.4522 C.3     1  LIG11      -0.0477
     28 H           3.6303  -18.5437   -6.0697 H       1  LIG11       0.0618
     29 H           1.3030  -18.7360   -5.2218 H       1  LIG11       0.0618
     30 H           0.3917  -16.9724   -3.7306 H       1  LIG11       0.0618
     31 H           1.7594  -15.0484   -3.0990 H       1  LIG11       0.0621
     32 H           5.0229  -16.6296   -5.4472 H       1  LIG11       0.0621
     33 H           7.2013  -14.7646   -4.3530 H       1  LIG11       0.0621
     34 H           8.4733  -14.1145   -6.3099 H       1  LIG11       0.0618
     35 H           7.3726  -12.9923   -8.2336 H       1  LIG11       0.0618
     36 H           4.9316  -12.5342   -8.1516 H       1  LIG11       0.0618
     37 H           3.6137  -13.1893   -6.1924 H       1  LIG11       0.0621
     38 H           4.3392  -20.0128    0.4163 H       1  LIG11       0.0653
     39 H           5.5041  -20.7723   -1.6083 H       1  LIG11       0.0293
     40 H           6.1741  -19.5656   -2.7151 H       1  LIG11       0.0293
     41 H           4.4806  -20.0865   -2.8916 H       1  LIG11       0.0293
     42 H           3.1462  -17.1392    2.5791 H       1  LIG11       0.0293
     43 H           4.1917  -18.5576    2.7686 H       1  LIG11       0.0293
     44 H           2.5358  -18.7420    2.1301 H       1  LIG11       0.0293
     45 H           5.8170  -15.7992   -2.8901 H       1  LIG11       0.0810
     46 H           3.0664  -13.3110   -2.4719 H       1  LIG11       0.0243
     47 H           2.7305  -13.0177   -4.1693 H       1  LIG11       0.0243
     48 H           4.1308  -12.2722   -3.4207 H       1  LIG11       0.0243
@<TRIPOS>BOND
     1     1     2   ar
     2     2     3   ar
     3     3     4   ar
     4     4     5   ar
     5     5     6   ar
     6     5    22    1
     7     6     1   ar
     8     7     8   ar
     9     8     9   ar
    10     9    10   ar
    11    10    11   ar
    12    11    26   ar
    13    12    13   ar
    14    13    14   ar
    15    14    15   ar
    16    15    16   ar
    17    15    19    1
    18    16    17   ar
    19    17    12   ar
    20    17    18    1
    21    20    21    1
    22    20    13    1
    23    21    23    1
    24    21    22    1
    25    22    27    1
    26    22    26    1
    27    23    25   ar
    28    23    24   ar
    29    26     7   ar
    30     1    28    1
    31     2    29    1
    32     3    30    1
    33     4    31    1
    34     6    32    1
    35     7    33    1
    36     8    34    1
    37     9    35    1
    38    10    36    1
    39    11    37    1
    40    16    38    1
    41    18    39    1
    42    18    40    1
    43    18    41    1
    44    19    42    1
    45    19    43    1
    46    19    44    1
    47    21    45    1
    48    27    46    1
    49    27    47    1
    50    27    48    1
@<TRIPOS>MOLECULE
../1EDN/XRAY_17-21.pdb
 47 48 0 0 0
SMALL
GASTEIGER

@<TRIPOS>ATOM
      1  N          6.4500  -19.7300   -2.8460 N.3    17  LEU17      -0.1231
      2  CA         5.2640  -20.1680   -2.1160 C.3    17  LEU17       0.1693
      3  C          4.7010  -18.8060   -1.6720 C.2    17  LEU17       0.2592
      4  O          4.3760  -17.9800   -2.5270 O.2    17  LEU17      -0.2718
      5  CB         5.6570  -21.0170   -0.8850 C.3    17  LEU17       0.0284
      6  CG         5.4050  -22.5400   -0.8470 C.3    17  LEU17       0.0019
      7  CD1        6.1110  -23.2140    0.3150 C.3    17  LEU17       0.0001
      8  CD2        3.9240  -22.7940   -0.7690 C.3    17  LEU17       0.0001
      9  N          4.7270  -18.4910   -0.3800 N.am   18  ASP18      -0.1962
     10  CA         4.1720  -17.2010    0.0630 C.3    18  ASP18       0.1783
     11  C          4.7750  -15.8130   -0.3500 C.2    18  ASP18       0.2620
     12  O          4.1570  -14.7710   -0.0750 O.2    18  ASP18      -0.2715
     13  CB         3.8720  -17.2370    1.5730 C.3    18  ASP18       0.0728
     14  CG         2.4440  -17.7210    1.8880 C.2    18  ASP18       0.0526
     15  OD1        1.8320  -18.4410    1.0660 O.co2  18  ASP18      -0.5491
     16  OD2        1.9260  -17.3730    2.9700 O.co2  18  ASP18      -0.5491
     17  N          5.9570  -15.7420   -0.9630 N.am   19  ILE19      -0.1963
     18  CA         6.4450  -14.4030   -1.3510 C.3    19  ILE19       0.1727
     19  C          5.5760  -13.9960   -2.5290 C.2    19  ILE19       0.2616
     20  O          4.8370  -13.0080   -2.4770 O.2    19  ILE19      -0.2715
     21  CB         7.9140  -14.3690   -1.8400 C.3    19  ILE19       0.0290
     22  CG1        8.8760  -14.8240   -0.7490 C.3    19  ILE19       0.0022
     23  CG2        8.2810  -12.9320   -2.2380 C.3    19  ILE19       0.0023
     24  CD1        9.3280  -13.7050    0.1860 C.3    19  ILE19       0.0001
     25  N          5.7170  -14.7750   -3.5990 N.am   20  ILE20      -0.1963
     26  CA         4.9770  -14.6140   -4.8450 C.3    20  ILE20       0.1727
     27  C          4.7560  -16.0550   -5.2510 C.2    20  ILE20       0.2615
     28  O          5.5820  -16.9240   -4.9410 O.2    20  ILE20      -0.2715
     29  CB         5.8140  -13.8870   -5.9550 C.3    20  ILE20       0.0290
     30  CG1        5.9530  -12.3980   -5.6400 C.3    20  ILE20       0.0022
     31  CG2        5.1640  -14.0490   -7.3150 C.3    20  ILE20       0.0023
     32  CD1        6.8340  -11.6390   -6.6010 C.3    20  ILE20       0.0001
     33  N          3.6520  -16.3070   -5.9350 N.am   21  TRP21      -0.1988
     34  CA         3.3300  -17.6370   -6.4010 C.3    21  TRP21       0.1456
     35  C          2.5650  -17.6270   -7.7180 C.2    21  TRP21       0.1166
     36  O          1.8980  -18.6320   -8.0750 O.co2  21  TRP21      -0.3065
     37  CB         2.6690  -18.5180   -5.3120 C.3    21  TRP21       0.0562
     38  CG         1.5690  -17.9980   -4.3600 C.ar   21  TRP21       0.0005
     39  CD1        0.7990  -18.7930   -3.5490 C.ar   21  TRP21       0.0946
     40  CD2        1.2480  -16.6350   -3.9890 C.ar   21  TRP21       0.0152
     41  CE2        0.3020  -16.7070   -2.9250 C.ar   21  TRP21       0.0810
     42  CE3        1.6680  -15.3700   -4.4360 C.ar   21  TRP21       0.0012
     43  NE1        0.0520  -18.0350   -2.6840 N.ar   21  TRP21      -0.2442
     44  CZ2       -0.2230  -15.5590   -2.2950 C.ar   21  TRP21       0.0191
     45  CZ3        1.1420  -14.2140   -3.8060 C.ar   21  TRP21       0.0001
     46  CH2        0.2070  -14.3240   -2.7450 C.ar   21  TRP21       0.0015
     47  OXT        2.7400  -16.6140   -8.4280 O.co2  21  TRP21      -0.8460
@<TRIPOS>BOND
     1    47    35   ar
     2    36    35   ar
     3    35    34    1
     4    31    29    1
     5    32    30    1
     6    34    33    1
     7    34    37    1
     8    29    30    1
     9    29    26    1
    10    33    27   am
    11    37    38    1
    12    27    28    2
    13    27    26    1
    14    26    25    1
    15    42    40   ar
    16    42    45   ar
    17    38    40   ar
    18    38    39   ar
    19    40    41   ar
    20    45    46   ar
    21    25    19   am
    22    39    43   ar
    23    41    43   ar
    24    41    44   ar
    25     1     2    1
    26    46    44   ar
    27    19    20    2
    28    19    18    1
    29     4     3    2
    30    23    21    1
    31     2     3    1
    32     2     5    1
    33    21    18    1
    34    21    22    1
    35     3     9   am
    36    18    17    1
    37    17    11   am
    38     5     6    1
    39     6     8    1
    40     6     7    1
    41    22    24    1
    42     9    10    1
    43    11    12    2
    44    11    10    1
    45    10    13    1
    46    15    14   ar
    47    13    14    1
    48    14    16   ar
