@<TRIPOS>MOLECULE
*****
 43 45 0 0 0
SMALL
GASTEIGER

@<TRIPOS>ATOM
      1 BR          6.4575  -12.7061   -6.1504 Br      1  LIG11      -0.0503
      2 BR          5.8616  -22.0135   -0.6247 Br      1  LIG11      -0.0472
      3 S          -0.1537  -14.5802   -3.2421 S.O2    1  LIG11       0.1079
      4 O           4.5829  -18.1627   -4.7420 O.3     1  LIG11      -0.4724
      5 O           0.8738  -13.6299   -4.0762 O.2     1  LIG11      -0.1383
      6 O          -0.8472  -14.3411   -3.3393 O.2     1  LIG11      -0.1383
      7 O           4.8450  -16.9538   -1.3691 O.3     1  LIG11      -0.4590
      8 N           1.3268  -15.1509   -2.4217 N.3     1  LIG11      -0.1906
      9 N           0.7655  -15.6328   -4.8158 N.pl3   1  LIG11      -0.1891
     10 N           0.1651  -18.0125   -3.8227 N.ar    1  LIG11      -0.2186
     11 N           2.4883  -19.0577   -3.3917 N.ar    1  LIG11      -0.2008
     12 N           5.2647  -19.3083   -2.1724 N.ar    1  LIG11      -0.2022
     13 N           4.2996  -18.1697    0.3039 N.ar    1  LIG11      -0.2022
     14 C           2.7975  -16.6569   -5.2047 C.ar    1  LIG11       0.0848
     15 C           1.0169  -17.1183   -4.3483 C.ar    1  LIG11       0.1532
     16 C           3.9957  -16.0088   -5.4173 C.ar    1  LIG11      -0.0094
     17 C           3.5299  -18.3130   -4.4196 C.ar    1  LIG11       0.2276
     18 C           3.5721  -14.9799   -5.0354 C.ar    1  LIG11      -0.0527
     19 C           4.9293  -15.7872   -4.4626 C.ar    1  LIG11      -0.0527
     20 C           5.5223  -17.2448   -3.8098 C.3     1  LIG11       0.1252
     21 C           4.3533  -13.7645   -6.3441 C.ar    1  LIG11      -0.0472
     22 C           6.0565  -14.9593   -5.4360 C.ar    1  LIG11      -0.0472
     23 C           1.1875  -18.7688   -3.3369 C.ar    1  LIG11       0.1219
     24 C           4.9512  -16.3320   -2.1793 C.3     1  LIG11       0.1267
     25 C           5.4318  -13.6625   -6.1069 C.ar    1  LIG11       0.0179
     26 C           4.8595  -17.8443   -1.4017 C.ar    1  LIG11       0.3180
     27 C           5.6961  -19.8173   -2.1938 C.ar    1  LIG11       0.0483
     28 C           4.8115  -19.6858   -0.0467 C.ar    1  LIG11       0.0483
     29 C           5.4017  -20.4625   -1.0159 C.ar    1  LIG11       0.0543
     30 H           0.6806  -15.8041   -2.2730 H       1  LIG11       0.1456
     31 H           1.8197  -14.1540   -1.2219 H       1  LIG11       0.1456
     32 H           0.4359  -15.5887   -5.7424 H       1  LIG11       0.1763
     33 H           2.9512  -14.2079   -5.7505 H       1  LIG11       0.0624
     34 H           5.2585  -16.4756   -4.9839 H       1  LIG11       0.0624
     35 H           6.0490  -17.3015   -4.4871 H       1  LIG11       0.0731
     36 H           6.4109  -17.5569   -3.3019 H       1  LIG11       0.0731
     37 H           3.7309  -12.6634   -6.1602 H       1  LIG11       0.0629
     38 H           7.0397  -15.1483   -5.4625 H       1  LIG11       0.0629
     39 H           0.5613  -19.4812   -2.9301 H       1  LIG11       0.1049
     40 H           6.3355  -15.3452   -2.5745 H       1  LIG11       0.0732
     41 H           3.7462  -15.6211   -2.9770 H       1  LIG11       0.0732
     42 H           5.9929  -20.4197   -2.9928 H       1  LIG11       0.0843
     43 H           4.5701  -20.1283    0.8539 H       1  LIG11       0.0843
@<TRIPOS>BOND
     1     1    25    1
     2     2    29    1
     3     3     9    1
     4     3     8    1
     5     3     6    2
     6     3     5    2
     7     4    17    1
     8     4    20    1
     9     7    24    1
    10     7    26    1
    11     9    15    1
    12    10    15   ar
    13    10    23   ar
    14    11    17   ar
    15    11    23   ar
    16    12    26   ar
    17    12    27   ar
    18    13    26   ar
    19    13    28   ar
    20    14    15   ar
    21    14    17   ar
    22    16    18   ar
    23    16    19   ar
    24    16    14    1
    25    18    21   ar
    26    19    22   ar
    27    20    24    1
    28    21    25   ar
    29    22    25   ar
    30    27    29   ar
    31    28    29   ar
    32     8    30    1
    33     8    31    1
    34     9    32    1
    35    18    33    1
    36    19    34    1
    37    20    35    1
    38    20    36    1
    39    21    37    1
    40    22    38    1
    41    23    39    1
    42    24    40    1
    43    24    41    1
    44    27    42    1
    45    28    43    1
@<TRIPOS>MOLECULE
../1EDN/XRAY_17-21.pdb
 47 48 0 0 0
SMALL
GASTEIGER

@<TRIPOS>ATOM
      1  N          6.4500  -19.7300   -2.8460 N.3    17  LEU17      -0.1231
      2  CA         5.2640  -20.1680   -2.1160 C.3    17  LEU17       0.1693
      3  C          4.7010  -18.8060   -1.6720 C.2    17  LEU17       0.2592
      4  O          4.3760  -17.9800   -2.5270 O.2    17  LEU17      -0.2718
      5  CB         5.6570  -21.0170   -0.8850 C.3    17  LEU17       0.0284
      6  CG         5.4050  -22.5400   -0.8470 C.3    17  LEU17       0.0019
      7  CD1        6.1110  -23.2140    0.3150 C.3    17  LEU17       0.0001
      8  CD2        3.9240  -22.7940   -0.7690 C.3    17  LEU17       0.0001
      9  N          4.7270  -18.4910   -0.3800 N.am   18  ASP18      -0.1962
     10  CA         4.1720  -17.2010    0.0630 C.3    18  ASP18       0.1783
     11  C          4.7750  -15.8130   -0.3500 C.2    18  ASP18       0.2620
     12  O          4.1570  -14.7710   -0.0750 O.2    18  ASP18      -0.2715
     13  CB         3.8720  -17.2370    1.5730 C.3    18  ASP18       0.0728
     14  CG         2.4440  -17.7210    1.8880 C.2    18  ASP18       0.0526
     15  OD1        1.8320  -18.4410    1.0660 O.co2  18  ASP18      -0.5491
     16  OD2        1.9260  -17.3730    2.9700 O.co2  18  ASP18      -0.5491
     17  N          5.9570  -15.7420   -0.9630 N.am   19  ILE19      -0.1963
     18  CA         6.4450  -14.4030   -1.3510 C.3    19  ILE19       0.1727
     19  C          5.5760  -13.9960   -2.5290 C.2    19  ILE19       0.2616
     20  O          4.8370  -13.0080   -2.4770 O.2    19  ILE19      -0.2715
     21  CB         7.9140  -14.3690   -1.8400 C.3    19  ILE19       0.0290
     22  CG1        8.8760  -14.8240   -0.7490 C.3    19  ILE19       0.0022
     23  CG2        8.2810  -12.9320   -2.2380 C.3    19  ILE19       0.0023
     24  CD1        9.3280  -13.7050    0.1860 C.3    19  ILE19       0.0001
     25  N          5.7170  -14.7750   -3.5990 N.am   20  ILE20      -0.1963
     26  CA         4.9770  -14.6140   -4.8450 C.3    20  ILE20       0.1727
     27  C          4.7560  -16.0550   -5.2510 C.2    20  ILE20       0.2615
     28  O          5.5820  -16.9240   -4.9410 O.2    20  ILE20      -0.2715
     29  CB         5.8140  -13.8870   -5.9550 C.3    20  ILE20       0.0290
     30  CG1        5.9530  -12.3980   -5.6400 C.3    20  ILE20       0.0022
     31  CG2        5.1640  -14.0490   -7.3150 C.3    20  ILE20       0.0023
     32  CD1        6.8340  -11.6390   -6.6010 C.3    20  ILE20       0.0001
     33  N          3.6520  -16.3070   -5.9350 N.am   21  TRP21      -0.1988
     34  CA         3.3300  -17.6370   -6.4010 C.3    21  TRP21       0.1456
     35  C          2.5650  -17.6270   -7.7180 C.2    21  TRP21       0.1166
     36  O          1.8980  -18.6320   -8.0750 O.co2  21  TRP21      -0.3065
     37  CB         2.6690  -18.5180   -5.3120 C.3    21  TRP21       0.0562
     38  CG         1.5690  -17.9980   -4.3600 C.ar   21  TRP21       0.0005
     39  CD1        0.7990  -18.7930   -3.5490 C.ar   21  TRP21       0.0946
     40  CD2        1.2480  -16.6350   -3.9890 C.ar   21  TRP21       0.0152
     41  CE2        0.3020  -16.7070   -2.9250 C.ar   21  TRP21       0.0810
     42  CE3        1.6680  -15.3700   -4.4360 C.ar   21  TRP21       0.0012
     43  NE1        0.0520  -18.0350   -2.6840 N.ar   21  TRP21      -0.2442
     44  CZ2       -0.2230  -15.5590   -2.2950 C.ar   21  TRP21       0.0191
     45  CZ3        1.1420  -14.2140   -3.8060 C.ar   21  TRP21       0.0001
     46  CH2        0.2070  -14.3240   -2.7450 C.ar   21  TRP21       0.0015
     47  OXT        2.7400  -16.6140   -8.4280 O.co2  21  TRP21      -0.8460
@<TRIPOS>BOND
     1    47    35   ar
     2    36    35   ar
     3    35    34    1
     4    31    29    1
     5    32    30    1
     6    34    33    1
     7    34    37    1
     8    29    30    1
     9    29    26    1
    10    33    27   am
    11    37    38    1
    12    27    28    2
    13    27    26    1
    14    26    25    1
    15    42    40   ar
    16    42    45   ar
    17    38    40   ar
    18    38    39   ar
    19    40    41   ar
    20    45    46   ar
    21    25    19   am
    22    39    43   ar
    23    41    43   ar
    24    41    44   ar
    25     1     2    1
    26    46    44   ar
    27    19    20    2
    28    19    18    1
    29     4     3    2
    30    23    21    1
    31     2     3    1
    32     2     5    1
    33    21    18    1
    34    21    22    1
    35     3     9   am
    36    18    17    1
    37    17    11   am
    38     5     6    1
    39     6     8    1
    40     6     7    1
    41    22    24    1
    42     9    10    1
    43    11    12    2
    44    11    10    1
    45    10    13    1
    46    15    14   ar
    47    13    14    1
    48    14    16   ar
