@<TRIPOS>MOLECULE
2-[[2-[2-butyl-4-[(Z)-2-carboxy-3-(6-methoxy-1,3-benzodioxol-5-yl)prop-1-enyl]pyrazol-3-yl]-5-methoxyphenoxy]methyl]benzoic acid
 77 81 0 0 0
SMALL
GASTEIGER

@<TRIPOS>ATOM
      1 O           5.7171  -13.8975   -5.9741 O.3     1  LIG11      -0.4866
      2 O           1.8328  -17.2654    2.9313 O.3     1  LIG11      -0.4526
      3 O           3.6509  -18.8471    2.8274 O.3     1  LIG11      -0.4525
      4 O           3.7181  -18.7127   -2.0106 O.3     1  LIG11      -0.4947
      5 O           7.1337  -13.5529   -1.3680 O.3     1  LIG11      -0.4950
      6 O          -0.5486  -18.2704   -1.7058 O.co2   1  LIG11      -0.5449
      7 O          -0.5875  -18.9021   -3.8863 O.co2   1  LIG11      -0.5449
      8 O           3.8724  -11.7066   -6.8134 O.co2   1  LIG11      -0.5446
      9 O           4.6333  -10.7595   -4.8830 O.co2   1  LIG11      -0.5446
     10 N           4.1310  -16.2517   -6.6462 N.ar    1  LIG11      -0.2630
     11 N           4.0927  -17.5079   -7.1541 N.ar    1  LIG11      -0.1785
     12 C           3.9153  -16.2368   -5.2632 C.ar    1  LIG11       0.0795
     13 C           4.0052  -15.1414   -7.5798 C.3     1  LIG11       0.0422
     14 C           2.8866  -15.2929   -8.6145 C.3     1  LIG11      -0.0336
     15 C           2.9456  -17.2612   -5.1613 C.ar    1  LIG11       0.0207
     16 C           4.7086  -15.3596   -4.3331 C.ar    1  LIG11       0.0425
     17 C           2.9386  -14.1250   -9.6025 C.3     1  LIG11      -0.0542
     18 C           3.2314  -18.0724   -6.3138 C.ar    1  LIG11       0.0571
     19 C           1.8548  -17.7105   -4.3274 C.2     1  LIG11      -0.0459
     20 C           1.6317  -16.6377   -1.9797 C.3     1  LIG11       0.0029
     21 C           5.6148  -14.3170   -4.6761 C.ar    1  LIG11       0.1336
     22 C           1.2658  -17.5269   -3.1256 C.2     1  LIG11      -0.0200
     23 C           2.2241  -17.3283   -0.7443 C.ar    1  LIG11       0.0023
     24 C           4.7179  -15.7215   -2.9845 C.ar    1  LIG11      -0.0456
     25 C           1.6784  -14.0422  -10.4439 C.3     1  LIG11      -0.0652
     26 C           6.3847  -13.6625   -3.6863 C.ar    1  LIG11       0.0224
     27 C           3.2839  -18.2811   -0.7833 C.ar    1  LIG11       0.1273
     28 C           1.7041  -16.9474    0.5133 C.ar    1  LIG11      -0.0092
     29 C           5.4937  -15.0957   -2.0034 C.ar    1  LIG11      -0.0191
     30 C           2.2373  -17.5082    1.6534 C.ar    1  LIG11       0.1667
     31 C           6.3607  -14.0845   -2.3633 C.ar    1  LIG11       0.1236
     32 C           3.2702  -18.4104    1.5965 C.ar    1  LIG11       0.1697
     33 C           3.8137  -18.8181    0.4005 C.ar    1  LIG11       0.0258
     34 C          -0.0822  -18.3188   -2.8813 C.2     1  LIG11       0.0680
     35 C           6.9684  -13.4430   -6.4773 C.3     1  LIG11       0.1153
     36 C           2.6808  -18.1772    3.6544 C.3     1  LIG11       0.2332
     37 C           7.0800  -11.9842   -6.8990 C.ar    1  LIG11      -0.0016
     38 C           6.1092  -10.9842   -6.6924 C.ar    1  LIG11       0.0037
     39 C           8.2791  -11.6098   -7.5486 C.ar    1  LIG11      -0.0547
     40 C           5.0884  -19.0717   -2.1199 C.3     1  LIG11       0.0788
     41 C           6.3674   -9.6611   -7.1155 C.ar    1  LIG11      -0.0525
     42 C           8.5122  -10.2978   -7.9739 C.ar    1  LIG11      -0.0614
     43 C           8.4943  -13.3896   -1.7569 C.3     1  LIG11       0.0788
     44 C           7.5548   -9.3187   -7.7521 C.ar    1  LIG11      -0.0611
     45 C           4.7660  -11.2104   -6.0573 C.2     1  LIG11       0.0720
     46 H           3.7699  -14.2532   -6.9997 H       1  LIG11       0.0509
     47 H           4.9733  -15.0465   -8.0771 H       1  LIG11       0.0509
     48 H           2.9765  -16.2366   -9.1671 H       1  LIG11       0.0283
     49 H           1.9201  -15.3172   -8.0980 H       1  LIG11       0.0283
     50 H           3.0655  -13.1810   -9.0665 H       1  LIG11       0.0263
     51 H           3.8097  -14.2424  -10.2570 H       1  LIG11       0.0263
     52 H           2.8065  -19.0338   -6.5677 H       1  LIG11       0.0854
     53 H           1.2901  -18.4550   -4.9037 H       1  LIG11       0.0628
     54 H           2.2764  -15.8152   -2.2929 H       1  LIG11       0.0363
     55 H           0.7173  -16.1032   -1.6780 H       1  LIG11       0.0363
     56 H           4.1158  -16.5591   -2.6830 H       1  LIG11       0.0626
     57 H           0.8034  -13.8627   -9.8136 H       1  LIG11       0.0230
     58 H           1.7572  -13.2143  -11.1567 H       1  LIG11       0.0230
     59 H           1.5164  -14.9664  -11.0080 H       1  LIG11       0.0230
     60 H           6.9721  -12.7918   -3.9528 H       1  LIG11       0.0691
     61 H           0.8737  -16.2536    0.5811 H       1  LIG11       0.0659
     62 H           5.4249  -15.4281   -0.9708 H       1  LIG11       0.0654
     63 H           4.5996  -19.5573    0.3957 H       1  LIG11       0.0692
     64 H           7.8046  -13.6960   -5.8115 H       1  LIG11       0.0748
     65 H           7.1383  -14.0347   -7.3848 H       1  LIG11       0.0748
     66 H           3.2115  -17.6172    4.4316 H       1  LIG11       0.1166
     67 H           2.0534  -18.9343    4.1373 H       1  LIG11       0.1166
     68 H           9.0455  -12.3583   -7.7330 H       1  LIG11       0.0622
     69 H           5.3574  -19.0444   -3.1794 H       1  LIG11       0.0660
     70 H           5.7424  -18.3699   -1.5917 H       1  LIG11       0.0660
     71 H           5.2463  -20.0949   -1.7601 H       1  LIG11       0.0660
     72 H           5.6031   -8.9062   -6.9375 H       1  LIG11       0.0624
     73 H           9.4396  -10.0455   -8.4766 H       1  LIG11       0.0618
     74 H           9.0844  -13.2328   -0.8461 H       1  LIG11       0.0660
     75 H           8.8853  -14.2882   -2.2504 H       1  LIG11       0.0660
     76 H           8.6239  -12.5090   -2.3933 H       1  LIG11       0.0660
     77 H           7.7173   -8.2950   -8.0728 H       1  LIG11       0.0618
@<TRIPOS>BOND
     1     1    35    1
     2     1    21    1
     3     2    36    1
     4     2    30    1
     5     3    32    1
     6     3    36    1
     7     4    27    1
     8     4    40    1
     9     5    31    1
    10     5    43    1
    11     6    34   ar
    12     7    34   ar
    13     8    45   ar
    14     9    45   ar
    15    10    11   ar
    16    10    12   ar
    17    10    13    1
    18    11    18   ar
    19    12    15   ar
    20    13    14    1
    21    14    17    1
    22    15    18   ar
    23    15    19    1
    24    16    24   ar
    25    16    21   ar
    26    16    12    1
    27    17    25    1
    28    19    22    2
    29    20    22    1
    30    20    23    1
    31    21    26   ar
    32    22    34    1
    33    23    28   ar
    34    23    27   ar
    35    24    29   ar
    36    26    31   ar
    37    27    33   ar
    38    28    30   ar
    39    29    31   ar
    40    30    32   ar
    41    32    33   ar
    42    35    37    1
    43    37    39   ar
    44    37    38   ar
    45    38    41   ar
    46    38    45    1
    47    39    42   ar
    48    41    44   ar
    49    42    44   ar
    50    13    46    1
    51    13    47    1
    52    14    48    1
    53    14    49    1
    54    17    50    1
    55    17    51    1
    56    18    52    1
    57    19    53    1
    58    20    54    1
    59    20    55    1
    60    24    56    1
    61    25    57    1
    62    25    58    1
    63    25    59    1
    64    26    60    1
    65    28    61    1
    66    29    62    1
    67    33    63    1
    68    35    64    1
    69    35    65    1
    70    36    66    1
    71    36    67    1
    72    39    68    1
    73    40    69    1
    74    40    70    1
    75    40    71    1
    76    41    72    1
    77    42    73    1
    78    43    74    1
    79    43    75    1
    80    43    76    1
    81    44    77    1
@<TRIPOS>MOLECULE
../1EDN/XRAY_17-21.pdb
 47 48 0 0 0
SMALL
GASTEIGER

@<TRIPOS>ATOM
      1  N          6.4500  -19.7300   -2.8460 N.3    17  LEU17      -0.1231
      2  CA         5.2640  -20.1680   -2.1160 C.3    17  LEU17       0.1693
      3  C          4.7010  -18.8060   -1.6720 C.2    17  LEU17       0.2592
      4  O          4.3760  -17.9800   -2.5270 O.2    17  LEU17      -0.2718
      5  CB         5.6570  -21.0170   -0.8850 C.3    17  LEU17       0.0284
      6  CG         5.4050  -22.5400   -0.8470 C.3    17  LEU17       0.0019
      7  CD1        6.1110  -23.2140    0.3150 C.3    17  LEU17       0.0001
      8  CD2        3.9240  -22.7940   -0.7690 C.3    17  LEU17       0.0001
      9  N          4.7270  -18.4910   -0.3800 N.am   18  ASP18      -0.1962
     10  CA         4.1720  -17.2010    0.0630 C.3    18  ASP18       0.1783
     11  C          4.7750  -15.8130   -0.3500 C.2    18  ASP18       0.2620
     12  O          4.1570  -14.7710   -0.0750 O.2    18  ASP18      -0.2715
     13  CB         3.8720  -17.2370    1.5730 C.3    18  ASP18       0.0728
     14  CG         2.4440  -17.7210    1.8880 C.2    18  ASP18       0.0526
     15  OD1        1.8320  -18.4410    1.0660 O.co2  18  ASP18      -0.5491
     16  OD2        1.9260  -17.3730    2.9700 O.co2  18  ASP18      -0.5491
     17  N          5.9570  -15.7420   -0.9630 N.am   19  ILE19      -0.1963
     18  CA         6.4450  -14.4030   -1.3510 C.3    19  ILE19       0.1727
     19  C          5.5760  -13.9960   -2.5290 C.2    19  ILE19       0.2616
     20  O          4.8370  -13.0080   -2.4770 O.2    19  ILE19      -0.2715
     21  CB         7.9140  -14.3690   -1.8400 C.3    19  ILE19       0.0290
     22  CG1        8.8760  -14.8240   -0.7490 C.3    19  ILE19       0.0022
     23  CG2        8.2810  -12.9320   -2.2380 C.3    19  ILE19       0.0023
     24  CD1        9.3280  -13.7050    0.1860 C.3    19  ILE19       0.0001
     25  N          5.7170  -14.7750   -3.5990 N.am   20  ILE20      -0.1963
     26  CA         4.9770  -14.6140   -4.8450 C.3    20  ILE20       0.1727
     27  C          4.7560  -16.0550   -5.2510 C.2    20  ILE20       0.2615
     28  O          5.5820  -16.9240   -4.9410 O.2    20  ILE20      -0.2715
     29  CB         5.8140  -13.8870   -5.9550 C.3    20  ILE20       0.0290
     30  CG1        5.9530  -12.3980   -5.6400 C.3    20  ILE20       0.0022
     31  CG2        5.1640  -14.0490   -7.3150 C.3    20  ILE20       0.0023
     32  CD1        6.8340  -11.6390   -6.6010 C.3    20  ILE20       0.0001
     33  N          3.6520  -16.3070   -5.9350 N.am   21  TRP21      -0.1988
     34  CA         3.3300  -17.6370   -6.4010 C.3    21  TRP21       0.1456
     35  C          2.5650  -17.6270   -7.7180 C.2    21  TRP21       0.1166
     36  O          1.8980  -18.6320   -8.0750 O.co2  21  TRP21      -0.3065
     37  CB         2.6690  -18.5180   -5.3120 C.3    21  TRP21       0.0562
     38  CG         1.5690  -17.9980   -4.3600 C.ar   21  TRP21       0.0005
     39  CD1        0.7990  -18.7930   -3.5490 C.ar   21  TRP21       0.0946
     40  CD2        1.2480  -16.6350   -3.9890 C.ar   21  TRP21       0.0152
     41  CE2        0.3020  -16.7070   -2.9250 C.ar   21  TRP21       0.0810
     42  CE3        1.6680  -15.3700   -4.4360 C.ar   21  TRP21       0.0012
     43  NE1        0.0520  -18.0350   -2.6840 N.ar   21  TRP21      -0.2442
     44  CZ2       -0.2230  -15.5590   -2.2950 C.ar   21  TRP21       0.0191
     45  CZ3        1.1420  -14.2140   -3.8060 C.ar   21  TRP21       0.0001
     46  CH2        0.2070  -14.3240   -2.7450 C.ar   21  TRP21       0.0015
     47  OXT        2.7400  -16.6140   -8.4280 O.co2  21  TRP21      -0.8460
@<TRIPOS>BOND
     1    47    35   ar
     2    36    35   ar
     3    35    34    1
     4    31    29    1
     5    32    30    1
     6    34    33    1
     7    34    37    1
     8    29    30    1
     9    29    26    1
    10    33    27   am
    11    37    38    1
    12    27    28    2
    13    27    26    1
    14    26    25    1
    15    42    40   ar
    16    42    45   ar
    17    38    40   ar
    18    38    39   ar
    19    40    41   ar
    20    45    46   ar
    21    25    19   am
    22    39    43   ar
    23    41    43   ar
    24    41    44   ar
    25     1     2    1
    26    46    44   ar
    27    19    20    2
    28    19    18    1
    29     4     3    2
    30    23    21    1
    31     2     3    1
    32     2     5    1
    33    21    18    1
    34    21    22    1
    35     3     9   am
    36    18    17    1
    37    17    11   am
    38     5     6    1
    39     6     8    1
    40     6     7    1
    41    22    24    1
    42     9    10    1
    43    11    12    2
    44    11    10    1
    45    10    13    1
    46    15    14   ar
    47    13    14    1
    48    14    16   ar
