@<TRIPOS>MOLECULE
9843631
 45 48 0 0 0
SMALL
GASTEIGER

@<TRIPOS>ATOM
      1 S           4.7404  -14.7025   -4.0784 S.O2    1  LIG11       0.0752
      2 O           4.7825  -16.6125   -7.1228 O.2     1  LIG11      -0.3377
      3 O           3.6124  -14.9329   -3.2075 O.2     1  LIG11      -0.1499
      4 O           4.6699  -13.7173   -5.1382 O.2     1  LIG11      -0.1499
      5 O           2.3461  -17.2812    2.6526 O.2     1  LIG11      -0.4436
      6 N           5.2641  -16.1675   -4.7793 N.pl3   1  LIG11      -0.1831
      7 N           3.7793  -17.1412   -7.9069 N.ar    1  LIG11      -0.0810
      8 N           2.0398  -18.9174    1.1265 N.ar    1  LIG11      -0.2175
      9 C           6.1988  -14.3191   -3.1089 C.ar    1  LIG11       0.1162
     10 C           6.4003  -14.7767   -1.7922 C.ar    1  LIG11       0.0087
     11 C           5.4404  -15.5578   -0.9951 C.ar    1  LIG11      -0.0160
     12 C           7.1725  -13.5241   -3.7497 C.ar    1  LIG11      -0.0345
     13 C           4.3994  -16.6161   -5.8179 C.ar    1  LIG11       0.2399
     14 C           7.6238  -14.4334   -1.1721 C.ar    1  LIG11      -0.0521
     15 C           3.1605  -17.2078   -5.7061 C.ar    1  LIG11       0.0350
     16 C           5.0905  -16.8744   -1.3221 C.ar    1  LIG11      -0.0533
     17 C           4.8815  -14.9977    0.1666 C.ar    1  LIG11      -0.0533
     18 C           8.3625  -13.1979   -3.1044 C.ar    1  LIG11      -0.0599
     19 C           8.5919  -13.6593   -1.8162 C.ar    1  LIG11      -0.0611
     20 C           3.6146  -17.0233    0.6165 C.ar    1  LIG11       0.0369
     21 C           2.8095  -17.4967   -7.0573 C.ar    1  LIG11       0.0854
     22 C           4.1763  -17.5900   -0.5360 C.ar    1  LIG11      -0.0489
     23 C           3.9880  -15.7202    0.9641 C.ar    1  LIG11      -0.0489
     24 C           2.3739  -17.5268   -4.4933 C.3     1  LIG11      -0.0330
     25 C           1.5782  -18.1425   -7.5700 C.3     1  LIG11      -0.0188
     26 C           2.6582  -17.7858    1.4140 C.ar    1  LIG11       0.2271
     27 C           1.4547  -18.1742    3.1633 C.ar    1  LIG11       0.1125
     28 C           1.2630  -19.1606    2.2309 C.ar    1  LIG11       0.0663
     29 H           6.1869  -16.0035   -5.1850 H       1  LIG11       0.1768
     30 H           7.0117  -13.1491   -4.7599 H       1  LIG11       0.0637
     31 H           7.8306  -14.7762   -0.1577 H       1  LIG11       0.0624
     32 H           5.5114  -17.3575   -2.2007 H       1  LIG11       0.0624
     33 H           5.1368  -13.9806    0.4600 H       1  LIG11       0.0624
     34 H           9.1065  -12.5839   -3.6064 H       1  LIG11       0.0618
     35 H           9.5190  -13.4124   -1.3041 H       1  LIG11       0.0618
     36 H           3.9001  -18.6012   -0.8314 H       1  LIG11       0.0625
     37 H           3.5764  -15.2447    1.8519 H       1  LIG11       0.0625
     38 H           2.9936  -17.5161   -3.5933 H       1  LIG11       0.0280
     39 H           1.9404  -18.5297   -4.5721 H       1  LIG11       0.0280
     40 H           1.5573  -16.8102   -4.3665 H       1  LIG11       0.0280
     41 H           1.5098  -18.0702   -8.6606 H       1  LIG11       0.0294
     42 H           0.6884  -17.6670   -7.1458 H       1  LIG11       0.0294
     43 H           1.5668  -19.2031   -7.2994 H       1  LIG11       0.0294
     44 H           1.0726  -17.9657    4.1512 H       1  LIG11       0.1046
     45 H           0.6168  -20.0247    2.2945 H       1  LIG11       0.0862
@<TRIPOS>BOND
     1     1     3    2
     2     1     4    2
     3     1     6    1
     4     1     9    1
     5     2     7   ar
     6     2    13   ar
     7     5    26   ar
     8     5    27   ar
     9     6    13    1
    10     7    21   ar
    11     8    26   ar
    12     8    28   ar
    13     9    10   ar
    14     9    12   ar
    15    10    11    1
    16    10    14   ar
    17    11    16   ar
    18    11    17   ar
    19    12    18   ar
    20    13    15   ar
    21    14    19   ar
    22    15    21   ar
    23    15    24    1
    24    16    22   ar
    25    17    23   ar
    26    18    19   ar
    27    20    22   ar
    28    20    23   ar
    29    20    26    1
    30    21    25    1
    31    27    28   ar
    32     6    29    1
    33    12    30    1
    34    14    31    1
    35    16    32    1
    36    17    33    1
    37    18    34    1
    38    19    35    1
    39    22    36    1
    40    23    37    1
    41    24    38    1
    42    24    39    1
    43    24    40    1
    44    25    41    1
    45    25    42    1
    46    25    43    1
    47    27    44    1
    48    28    45    1
@<TRIPOS>MOLECULE
../1EDN/XRAY_17-21.pdb
 47 48 0 0 0
SMALL
GASTEIGER

@<TRIPOS>ATOM
      1  N          6.4500  -19.7300   -2.8460 N.3    17  LEU17      -0.1231
      2  CA         5.2640  -20.1680   -2.1160 C.3    17  LEU17       0.1693
      3  C          4.7010  -18.8060   -1.6720 C.2    17  LEU17       0.2592
      4  O          4.3760  -17.9800   -2.5270 O.2    17  LEU17      -0.2718
      5  CB         5.6570  -21.0170   -0.8850 C.3    17  LEU17       0.0284
      6  CG         5.4050  -22.5400   -0.8470 C.3    17  LEU17       0.0019
      7  CD1        6.1110  -23.2140    0.3150 C.3    17  LEU17       0.0001
      8  CD2        3.9240  -22.7940   -0.7690 C.3    17  LEU17       0.0001
      9  N          4.7270  -18.4910   -0.3800 N.am   18  ASP18      -0.1962
     10  CA         4.1720  -17.2010    0.0630 C.3    18  ASP18       0.1783
     11  C          4.7750  -15.8130   -0.3500 C.2    18  ASP18       0.2620
     12  O          4.1570  -14.7710   -0.0750 O.2    18  ASP18      -0.2715
     13  CB         3.8720  -17.2370    1.5730 C.3    18  ASP18       0.0728
     14  CG         2.4440  -17.7210    1.8880 C.2    18  ASP18       0.0526
     15  OD1        1.8320  -18.4410    1.0660 O.co2  18  ASP18      -0.5491
     16  OD2        1.9260  -17.3730    2.9700 O.co2  18  ASP18      -0.5491
     17  N          5.9570  -15.7420   -0.9630 N.am   19  ILE19      -0.1963
     18  CA         6.4450  -14.4030   -1.3510 C.3    19  ILE19       0.1727
     19  C          5.5760  -13.9960   -2.5290 C.2    19  ILE19       0.2616
     20  O          4.8370  -13.0080   -2.4770 O.2    19  ILE19      -0.2715
     21  CB         7.9140  -14.3690   -1.8400 C.3    19  ILE19       0.0290
     22  CG1        8.8760  -14.8240   -0.7490 C.3    19  ILE19       0.0022
     23  CG2        8.2810  -12.9320   -2.2380 C.3    19  ILE19       0.0023
     24  CD1        9.3280  -13.7050    0.1860 C.3    19  ILE19       0.0001
     25  N          5.7170  -14.7750   -3.5990 N.am   20  ILE20      -0.1963
     26  CA         4.9770  -14.6140   -4.8450 C.3    20  ILE20       0.1727
     27  C          4.7560  -16.0550   -5.2510 C.2    20  ILE20       0.2615
     28  O          5.5820  -16.9240   -4.9410 O.2    20  ILE20      -0.2715
     29  CB         5.8140  -13.8870   -5.9550 C.3    20  ILE20       0.0290
     30  CG1        5.9530  -12.3980   -5.6400 C.3    20  ILE20       0.0022
     31  CG2        5.1640  -14.0490   -7.3150 C.3    20  ILE20       0.0023
     32  CD1        6.8340  -11.6390   -6.6010 C.3    20  ILE20       0.0001
     33  N          3.6520  -16.3070   -5.9350 N.am   21  TRP21      -0.1988
     34  CA         3.3300  -17.6370   -6.4010 C.3    21  TRP21       0.1456
     35  C          2.5650  -17.6270   -7.7180 C.2    21  TRP21       0.1166
     36  O          1.8980  -18.6320   -8.0750 O.co2  21  TRP21      -0.3065
     37  CB         2.6690  -18.5180   -5.3120 C.3    21  TRP21       0.0562
     38  CG         1.5690  -17.9980   -4.3600 C.ar   21  TRP21       0.0005
     39  CD1        0.7990  -18.7930   -3.5490 C.ar   21  TRP21       0.0946
     40  CD2        1.2480  -16.6350   -3.9890 C.ar   21  TRP21       0.0152
     41  CE2        0.3020  -16.7070   -2.9250 C.ar   21  TRP21       0.0810
     42  CE3        1.6680  -15.3700   -4.4360 C.ar   21  TRP21       0.0012
     43  NE1        0.0520  -18.0350   -2.6840 N.ar   21  TRP21      -0.2442
     44  CZ2       -0.2230  -15.5590   -2.2950 C.ar   21  TRP21       0.0191
     45  CZ3        1.1420  -14.2140   -3.8060 C.ar   21  TRP21       0.0001
     46  CH2        0.2070  -14.3240   -2.7450 C.ar   21  TRP21       0.0015
     47  OXT        2.7400  -16.6140   -8.4280 O.co2  21  TRP21      -0.8460
@<TRIPOS>BOND
     1    47    35   ar
     2    36    35   ar
     3    35    34    1
     4    31    29    1
     5    32    30    1
     6    34    33    1
     7    34    37    1
     8    29    30    1
     9    29    26    1
    10    33    27   am
    11    37    38    1
    12    27    28    2
    13    27    26    1
    14    26    25    1
    15    42    40   ar
    16    42    45   ar
    17    38    40   ar
    18    38    39   ar
    19    40    41   ar
    20    45    46   ar
    21    25    19   am
    22    39    43   ar
    23    41    43   ar
    24    41    44   ar
    25     1     2    1
    26    46    44   ar
    27    19    20    2
    28    19    18    1
    29     4     3    2
    30    23    21    1
    31     2     3    1
    32     2     5    1
    33    21    18    1
    34    21    22    1
    35     3     9   am
    36    18    17    1
    37    17    11   am
    38     5     6    1
    39     6     8    1
    40     6     7    1
    41    22    24    1
    42     9    10    1
    43    11    12    2
    44    11    10    1
    45    10    13    1
    46    15    14   ar
    47    13    14    1
    48    14    16   ar
