@<TRIPOS>MOLECULE
123882
 117 122 0 0 0
SMALL
GASTEIGER

@<TRIPOS>ATOM
      1 S           9.1321  -15.6428   -1.1173 S.2     3  UNK33      -0.0993
      2 O           4.3975  -16.4949   -9.2100 O.2     1  UNK11      -0.2755
      3 O           2.8891  -17.3004    1.4155 O.2     4  LEU44      -0.2738
      4 O           5.9217  -16.7192   -5.8332 O.2     1  UNK11      -0.2737
      5 O           4.0640  -17.3629   -2.5129 O.2     5  TRP55      -0.2738
      6 O           3.2689  -19.5449   -5.4397 O.2     6  ASP66      -0.2738
      7 O           6.5806  -14.1388    0.8517 O.2     3  UNK33      -0.2734
      8 O           4.5280  -13.6210   -2.9656 O.2     2  ASP22      -0.2737
      9 OD1         0.1656  -19.9238   -1.6338 O.co2   6  ASP66      -0.5497
     10 OD2        -1.3358  -18.9040   -3.0299 O.co2   6  ASP66      -0.5497
     11 OD1         5.6823  -12.9989   -7.8363 O.co2   2  ASP22      -0.5497
     12 OD2         7.0315  -11.4299   -6.8763 O.co2   2  ASP22      -0.5497
     13 N           2.9770  -14.7248   -9.5355 N.am    1  UNK11      -0.2984
     14 N           2.3501  -12.0530  -10.6429 N.pl3   1  UNK11      -0.3269
     15 N           2.7805  -17.2942   -5.3746 N.am    1  UNK11      -0.3020
     16 N           4.6891  -17.5721    0.0134 N.am    5  TRP55      -0.3022
     17 N           4.9312  -14.9462   -0.4946 N.am    4  LEU44      -0.3022
     18 N           2.7125  -19.2127   -2.4948 N.am    6  ASP66      -0.3021
     19 N           4.5947  -14.8732   -5.6063 N.am    2  ASP22      -0.3021
     20 N           6.6258  -14.4858   -2.8629 N.am    3  UNK33      -0.2984
     21 NE1         4.6797  -22.8771   -2.5310 N.ar    5  TRP55      -0.3604
     22 C           1.7233  -14.0151   -9.2558 C.3     1  UNK11       0.0304
     23 C           3.8237  -14.1325  -10.5769 C.3     1  UNK11       0.0304
     24 C           1.3204  -13.0878  -10.4165 C.3     1  UNK11       0.0280
     25 C           3.7561  -12.5896  -10.5824 C.3     1  UNK11       0.0280
     26 C           3.4692  -15.7962   -8.8047 C.2     1  UNK11       0.2179
     27 C           2.7357  -16.1240   -7.5187 C.3     1  UNK11       0.0510
     28 C           3.5942  -16.9330   -6.5430 C.3     1  UNK11       0.1076
     29 CA          4.0196  -15.2932    0.6041 C.3     4  LEU44       0.0997
     30 CB          2.7317  -14.4454    0.5764 C.3     4  LEU44      -0.0236
     31 CA          4.2680  -18.8440   -0.5935 C.3     5  TRP55       0.1034
     32 C           2.2072  -10.7662  -10.0872 C.ar    1  UNK11       0.0298
     33 CG          1.8657  -14.5056   -0.7043 C.3     4  LEU44      -0.0446
     34 CB          5.4882  -19.7549   -0.7619 C.3     5  TRP55       0.0013
     35 C           3.7661  -16.8126    0.7077 C.2     4  LEU44       0.2340
     36 CA          1.8877  -18.7149   -3.5939 C.3     6  ASP66       0.1045
     37 C           4.8330  -16.1720   -6.0098 C.2     1  UNK11       0.2344
     38 CG          5.1902  -21.1512   -1.2130 C.ar    5  TRP55      -0.0201
     39 C           3.6829  -18.3995   -1.9575 C.2     5  TRP55       0.2343
     40 C           2.7282  -18.5891   -4.8869 C.2     6  ASP66       0.2343
     41 CA          5.6550  -14.0165   -5.0930 C.3     2  ASP22       0.1045
     42 CD2         1.0843  -15.8105   -0.8469 C.3     4  LEU44      -0.0626
     43 CD1         0.8734  -13.3360   -0.7109 C.3     4  LEU44      -0.0626
     44 C           6.9468  -13.9134   -1.5619 C.3     3  UNK33       0.1311
     45 C           3.2201   -9.7994  -10.2491 C.ar    1  UNK11      -0.0407
     46 C           1.0742  -10.3473   -9.3701 C.ar    1  UNK11      -0.0407
     47 CD2         5.1753  -22.3487   -0.4236 C.ar    5  TRP55       0.0029
     48 C           6.1688  -14.3765   -0.2873 C.2     3  UNK33       0.2390
     49 CB          0.7204  -19.6454   -3.8935 C.3     6  ASP66       0.0138
     50 CD1         4.9184  -21.5324   -2.5126 C.ar    5  TRP55       0.0060
     51 CE2         4.8663  -23.4096   -1.2781 C.ar    5  TRP55       0.0467
     52 C           5.5308  -14.0239   -3.5564 C.2     2  ASP22       0.2345
     53 CB          5.4848  -12.5642   -5.5283 C.3     2  ASP22       0.0138
     54 C           3.1369   -8.5195   -9.6866 C.ar    1  UNK11      -0.0600
     55 C           0.9776   -9.0641   -8.8098 C.ar    1  UNK11      -0.0600
     56 C           8.4354  -14.0874   -1.3386 C.ar    3  UNK33       0.0189
     57 CE3         5.4010  -22.6358    0.9395 C.ar    5  TRP55      -0.0523
     58 C           2.0135   -8.1520   -8.9607 C.ar    1  UNK11      -0.0616
     59 CZ2         4.7754  -24.7374   -0.8420 C.ar    5  TRP55      -0.0378
     60 CG         -0.2492  -19.4746   -2.7419 C.2     6  ASP66       0.0440
     61 CZ3         5.3202  -23.9597    1.3917 C.ar    5  TRP55      -0.0611
     62 C           9.4020  -13.0978   -1.3034 C.ar    3  UNK33      -0.0493
     63 CH2         5.0127  -24.9938    0.5111 C.ar    5  TRP55      -0.0598
     64 CG          6.1358  -12.3217   -6.8756 C.2     2  ASP22       0.0440
     65 C          10.7079  -13.6163   -1.0725 C.ar    3  UNK33      -0.0544
     66 C          10.7022  -14.9868   -0.9484 C.ar    3  UNK33      -0.0240
     67 H           2.6636  -16.5761   -4.6672 H       1  UNK11       0.1495
     68 H           5.2557  -17.0062   -0.6143 H       5  TRP55       0.1495
     69 H           4.5888  -15.0086   -1.4554 H       4  LEU44       0.1495
     70 H           2.1725  -19.7639   -1.8202 H       6  ASP66       0.1495
     71 H           3.6613  -14.4940   -5.5909 H       2  ASP22       0.1495
     72 H           7.3989  -14.8300   -3.4227 H       3  UNK33       0.1498
     73 HE1         4.4110  -23.3985   -3.3529 H       5  TRP55       0.1653
     74 H           1.8660  -13.4322   -8.3389 H       1  UNK11       0.0480
     75 H           0.9375  -14.7558   -9.0743 H       1  UNK11       0.0480
     76 H           3.4655  -14.5252  -11.5365 H       1  UNK11       0.0480
     77 H           4.8635  -14.4561  -10.4604 H       1  UNK11       0.0480
     78 H           1.2397  -13.6807  -11.3377 H       1  UNK11       0.0479
     79 H           0.3162  -12.6841  -10.2671 H       1  UNK11       0.0479
     80 H           4.2443  -12.2303   -9.6720 H       1  UNK11       0.0479
     81 H           4.3172  -12.2194  -11.4483 H       1  UNK11       0.0479
     82 H           1.8470  -16.7067   -7.7939 H       1  UNK11       0.0381
     83 H           2.3770  -15.2080   -7.0416 H       1  UNK11       0.0381
     84 H           3.9565  -17.8419   -7.0375 H       1  UNK11       0.0599
     85 HA          4.5268  -15.0512    1.5475 H       4  LEU44       0.0594
     86 HB1         3.0377  -13.4007    0.7268 H       4  LEU44       0.0290
     87 HB2         2.1065  -14.7061    1.4404 H       4  LEU44       0.0290
     88 HA          3.4850  -19.3069    0.0166 H       5  TRP55       0.0598
     89 HG          2.5013  -14.3917   -1.5867 H       4  LEU44       0.0296
     90 HB1         6.0266  -19.8031    0.1943 H       5  TRP55       0.0337
     91 HB2         6.1949  -19.3029   -1.4713 H       5  TRP55       0.0337
     92 HA          1.5188  -17.7235   -3.3010 H       6  ASP66       0.0598
     93 HA          6.6327  -14.4093   -5.3939 H       2  ASP22       0.0598
     94 HD21        0.4569  -15.9995    0.0300 H       4  LEU44       0.0232
     95 HD22        1.7495  -16.6626   -0.9808 H       4  LEU44       0.0232
     96 HD23        0.4314  -15.7777   -1.7265 H       4  LEU44       0.0232
     97 HD11        0.1867  -13.3923    0.1407 H       4  LEU44       0.0232
     98 HD12        0.2754  -13.3383   -1.6289 H       4  LEU44       0.0232
     99 HD13        1.3990  -12.3765   -0.6629 H       4  LEU44       0.0232
    100 H           6.7332  -12.8374   -1.6366 H       3  UNK33       0.0651
    101 H           4.1229  -10.0377  -10.8060 H       1  UNK11       0.0636
    102 H           0.2384  -11.0109   -9.1872 H       1  UNK11       0.0636
    103 HB1         1.0364  -20.6925   -3.9648 H       6  ASP66       0.0348
    104 HB2         0.2357  -19.3772   -4.8396 H       6  ASP66       0.0348
    105 HD1         4.8376  -20.9487   -3.4228 H       5  TRP55       0.0810
    106 HB1         5.9564  -11.8931   -4.7973 H       2  ASP22       0.0348
    107 HB2         4.4281  -12.2758   -5.5835 H       2  ASP22       0.0348
    108 H           3.9663   -7.8282   -9.8047 H       1  UNK11       0.0618
    109 H           0.0951   -8.7934   -8.2372 H       1  UNK11       0.0618
    110 HE3         5.6341  -21.8367    1.6366 H       5  TRP55       0.0624
    111 H           1.9532   -7.1688   -8.5053 H       1  UNK11       0.0618
    112 HZ2         4.5257  -25.5395   -1.5278 H       5  TRP55       0.0638
    113 HZ3         5.4933  -24.1770    2.4420 H       5  TRP55       0.0618
    114 H           9.1775  -12.0456   -1.4353 H       3  UNK33       0.0626
    115 HH2         4.9480  -26.0141    0.8798 H       5  TRP55       0.0618
    116 H          11.6044  -13.0132   -1.0041 H       3  UNK33       0.0623
    117 H          11.5451  -15.6397   -0.7712 H       3  UNK33       0.0693
@<TRIPOS>BOND
     1     1    56   ar
     2     1    66   ar
     3     2    26    2
     4     3    35    2
     5     4    37    2
     6     5    39    2
     7     6    40    2
     8     7    48    2
     9     8    52    2
    10     9    60   ar
    11    10    60   ar
    12    11    64   ar
    13    12    64   ar
    14    13    22    1
    15    13    23    1
    16    14    24    1
    17    14    25    1
    18    14    32    1
    19    15    28    1
    20    15    40   am
    21    16    35   am
    22    16    31    1
    23    17    48   am
    24    17    29    1
    25    18    39   am
    26    18    36    1
    27    19    37   am
    28    19    41    1
    29    20    52   am
    30    20    44    1
    31    21    50   ar
    32    21    51   ar
    33    22    24    1
    34    23    25    1
    35    26    27    1
    36    26    13   am
    37    28    37    1
    38    28    27    1
    39    29    35    1
    40    29    30    1
    41    30    33    1
    42    31    39    1
    43    31    34    1
    44    32    45   ar
    45    32    46   ar
    46    33    43    1
    47    33    42    1
    48    34    38    1
    49    36    40    1
    50    36    49    1
    51    38    47   ar
    52    38    50   ar
    53    41    52    1
    54    41    53    1
    55    44    48    1
    56    44    56    1
    57    45    54   ar
    58    46    55   ar
    59    47    57   ar
    60    47    51   ar
    61    49    60    1
    62    51    59   ar
    63    53    64    1
    64    54    58   ar
    65    55    58   ar
    66    56    62   ar
    67    57    61   ar
    68    59    63   ar
    69    61    63   ar
    70    62    65   ar
    71    65    66   ar
    72    15    67    1
    73    16    68    1
    74    17    69    1
    75    18    70    1
    76    19    71    1
    77    20    72    1
    78    21    73    1
    79    22    74    1
    80    22    75    1
    81    23    76    1
    82    23    77    1
    83    24    78    1
    84    24    79    1
    85    25    80    1
    86    25    81    1
    87    27    82    1
    88    27    83    1
    89    28    84    1
    90    29    85    1
    91    30    86    1
    92    30    87    1
    93    31    88    1
    94    33    89    1
    95    34    90    1
    96    34    91    1
    97    36    92    1
    98    41    93    1
    99    42    94    1
   100    42    95    1
   101    42    96    1
   102    43    97    1
   103    43    98    1
   104    43    99    1
   105    44   100    1
   106    45   101    1
   107    46   102    1
   108    49   103    1
   109    49   104    1
   110    50   105    1
   111    53   106    1
   112    53   107    1
   113    54   108    1
   114    55   109    1
   115    57   110    1
   116    58   111    1
   117    59   112    1
   118    61   113    1
   119    62   114    1
   120    63   115    1
   121    65   116    1
   122    66   117    1
@<TRIPOS>MOLECULE
../1EDN/XRAY_17-21.pdb
 47 48 0 0 0
SMALL
GASTEIGER

@<TRIPOS>ATOM
      1  N          6.4500  -19.7300   -2.8460 N.3    17  LEU17      -0.1231
      2  CA         5.2640  -20.1680   -2.1160 C.3    17  LEU17       0.1693
      3  C          4.7010  -18.8060   -1.6720 C.2    17  LEU17       0.2592
      4  O          4.3760  -17.9800   -2.5270 O.2    17  LEU17      -0.2718
      5  CB         5.6570  -21.0170   -0.8850 C.3    17  LEU17       0.0284
      6  CG         5.4050  -22.5400   -0.8470 C.3    17  LEU17       0.0019
      7  CD1        6.1110  -23.2140    0.3150 C.3    17  LEU17       0.0001
      8  CD2        3.9240  -22.7940   -0.7690 C.3    17  LEU17       0.0001
      9  N          4.7270  -18.4910   -0.3800 N.am   18  ASP18      -0.1962
     10  CA         4.1720  -17.2010    0.0630 C.3    18  ASP18       0.1783
     11  C          4.7750  -15.8130   -0.3500 C.2    18  ASP18       0.2620
     12  O          4.1570  -14.7710   -0.0750 O.2    18  ASP18      -0.2715
     13  CB         3.8720  -17.2370    1.5730 C.3    18  ASP18       0.0728
     14  CG         2.4440  -17.7210    1.8880 C.2    18  ASP18       0.0526
     15  OD1        1.8320  -18.4410    1.0660 O.co2  18  ASP18      -0.5491
     16  OD2        1.9260  -17.3730    2.9700 O.co2  18  ASP18      -0.5491
     17  N          5.9570  -15.7420   -0.9630 N.am   19  ILE19      -0.1963
     18  CA         6.4450  -14.4030   -1.3510 C.3    19  ILE19       0.1727
     19  C          5.5760  -13.9960   -2.5290 C.2    19  ILE19       0.2616
     20  O          4.8370  -13.0080   -2.4770 O.2    19  ILE19      -0.2715
     21  CB         7.9140  -14.3690   -1.8400 C.3    19  ILE19       0.0290
     22  CG1        8.8760  -14.8240   -0.7490 C.3    19  ILE19       0.0022
     23  CG2        8.2810  -12.9320   -2.2380 C.3    19  ILE19       0.0023
     24  CD1        9.3280  -13.7050    0.1860 C.3    19  ILE19       0.0001
     25  N          5.7170  -14.7750   -3.5990 N.am   20  ILE20      -0.1963
     26  CA         4.9770  -14.6140   -4.8450 C.3    20  ILE20       0.1727
     27  C          4.7560  -16.0550   -5.2510 C.2    20  ILE20       0.2615
     28  O          5.5820  -16.9240   -4.9410 O.2    20  ILE20      -0.2715
     29  CB         5.8140  -13.8870   -5.9550 C.3    20  ILE20       0.0290
     30  CG1        5.9530  -12.3980   -5.6400 C.3    20  ILE20       0.0022
     31  CG2        5.1640  -14.0490   -7.3150 C.3    20  ILE20       0.0023
     32  CD1        6.8340  -11.6390   -6.6010 C.3    20  ILE20       0.0001
     33  N          3.6520  -16.3070   -5.9350 N.am   21  TRP21      -0.1988
     34  CA         3.3300  -17.6370   -6.4010 C.3    21  TRP21       0.1456
     35  C          2.5650  -17.6270   -7.7180 C.2    21  TRP21       0.1166
     36  O          1.8980  -18.6320   -8.0750 O.co2  21  TRP21      -0.3065
     37  CB         2.6690  -18.5180   -5.3120 C.3    21  TRP21       0.0562
     38  CG         1.5690  -17.9980   -4.3600 C.ar   21  TRP21       0.0005
     39  CD1        0.7990  -18.7930   -3.5490 C.ar   21  TRP21       0.0946
     40  CD2        1.2480  -16.6350   -3.9890 C.ar   21  TRP21       0.0152
     41  CE2        0.3020  -16.7070   -2.9250 C.ar   21  TRP21       0.0810
     42  CE3        1.6680  -15.3700   -4.4360 C.ar   21  TRP21       0.0012
     43  NE1        0.0520  -18.0350   -2.6840 N.ar   21  TRP21      -0.2442
     44  CZ2       -0.2230  -15.5590   -2.2950 C.ar   21  TRP21       0.0191
     45  CZ3        1.1420  -14.2140   -3.8060 C.ar   21  TRP21       0.0001
     46  CH2        0.2070  -14.3240   -2.7450 C.ar   21  TRP21       0.0015
     47  OXT        2.7400  -16.6140   -8.4280 O.co2  21  TRP21      -0.8460
@<TRIPOS>BOND
     1    47    35   ar
     2    36    35   ar
     3    35    34    1
     4    31    29    1
     5    32    30    1
     6    34    33    1
     7    34    37    1
     8    29    30    1
     9    29    26    1
    10    33    27   am
    11    37    38    1
    12    27    28    2
    13    27    26    1
    14    26    25    1
    15    42    40   ar
    16    42    45   ar
    17    38    40   ar
    18    38    39   ar
    19    40    41   ar
    20    45    46   ar
    21    25    19   am
    22    39    43   ar
    23    41    43   ar
    24    41    44   ar
    25     1     2    1
    26    46    44   ar
    27    19    20    2
    28    19    18    1
    29     4     3    2
    30    23    21    1
    31     2     3    1
    32     2     5    1
    33    21    18    1
    34    21    22    1
    35     3     9   am
    36    18    17    1
    37    17    11   am
    38     5     6    1
    39     6     8    1
    40     6     7    1
    41    22    24    1
    42     9    10    1
    43    11    12    2
    44    11    10    1
    45    10    13    1
    46    15    14   ar
    47    13    14    1
    48    14    16   ar
