@<TRIPOS>MOLECULE
BOSENTAN_50CONFORMERS.pdb
 39 42 0 0 0
SMALL
GASTEIGER

@<TRIPOS>ATOM
      1  S1        -1.4970    0.4400    2.6580 S.O2    1  LGD1        0.0943
      2  O2        -0.8100   -0.4410    3.6510 O.2     1  LGD1       -0.1483
      3  O3        -0.9200    1.6840    2.0120 O.2     1  LGD1       -0.1483
      4  O4        -2.3710   -2.9870   -0.1220 O.3     1  LGD1       -0.4427
      5  O5        -0.5470   -3.8010   -2.0600 O.3     1  LGD1       -0.4552
      6  O6        -0.7430   -4.8190    1.2510 O.3     1  LGD1       -0.4684
      7  O7        -1.1510   -5.5230   -4.1990 O.3     1  LGD1       -0.2162
      8  N8        -1.7760   -0.7060    1.3760 N.pl3   1  LGD1       -0.0737
      9  N9         0.4170   -0.5780    0.4460 N.ar    1  LGD1       -0.2027
     10  N10        0.9570   -2.0600   -1.3620 N.ar    1  LGD1       -0.1866
     11  N11        2.3610    0.5000   -1.8300 N.ar    1  LGD1       -0.2224
     12  N12        3.4760   -0.6410    0.0820 N.ar    1  LGD1       -0.2224
     13  C13       -7.1790    1.1550    4.8090 C.3     1  LGD1        0.0189
     14  C14       -5.7770    0.9400    4.2660 C.ar    1  LGD1       -0.0227
     15  C15       -8.0860    2.1090    4.0520 C.3     1  LGD1        0.0044
     16  C16       -7.0320    1.7110    6.2150 C.3     1  LGD1        0.0044
     17  C17       -7.9580   -0.2170    4.9340 C.3     1  LGD1        0.0044
     18  C18       -5.0880    2.0730    3.7570 C.ar    1  LGD1       -0.0029
     19  C19       -5.1990   -0.3450    4.2590 C.ar    1  LGD1       -0.0029
     20  C20       -3.1420    0.6730    3.3020 C.ar    1  LGD1        0.1271
     21  C21       -3.7110    1.9450    3.3880 C.ar    1  LGD1        0.0199
     22  C22       -3.8680   -0.4280    3.7620 C.ar    1  LGD1        0.0199
     23  C23       -0.8220   -1.1540    0.4830 C.ar    1  LGD1        0.2125
     24  C24       -1.1840   -2.2400   -0.3020 C.ar    1  LGD1        0.2327
     25  C25       -0.2520   -2.7270   -1.2210 C.ar    1  LGD1        0.2651
     26  C26        1.1890   -1.0100   -0.5520 C.ar    1  LGD1        0.2028
     27  C27       -2.7840   -3.6490    0.9860 C.ar    1  LGD1        0.1793
     28  C28        2.4860   -0.3510   -0.7800 C.ar    1  LGD1        0.1990
     29  C29        0.3250   -4.0080   -3.2670 C.3     1  LGD1        0.2426
     30  C30       -2.0040   -4.5850    1.6330 C.ar    1  LGD1        0.1730
     31  C31       -4.0360   -3.3250    1.4550 C.ar    1  LGD1        0.0406
     32  C32       -2.5190   -5.2950    2.7260 C.ar    1  LGD1        0.0401
     33  C33       -0.6280   -4.2550   -4.4030 C.3     1  LGD1        0.2292
     34  C34       -4.5900   -4.1080    2.4960 C.ar    1  LGD1        0.0033
     35  C35       -3.8510   -5.0820    3.1320 C.ar    1  LGD1        0.0033
     36  C36        3.4930    1.1150   -2.1940 C.ar    1  LGD1        0.1023
     37  C37        4.6690   -0.0760   -0.3150 C.ar    1  LGD1        0.1023
     38  C38        4.6380    0.7360   -1.4650 C.ar    1  LGD1        0.0414
     39  C39       -0.7280   -5.9650    0.4290 C.3     1  LGD1        0.2526
@<TRIPOS>BOND
     1    33     7    1
     2    33    29    1
     3     5    29    1
     4     5    25    1
     5    10    25   ar
     6    10    26   ar
     7    36    11   ar
     8    36    38   ar
     9    11    28   ar
    10    25    24   ar
    11    38    37   ar
    12    34    31   ar
    13    34    35   ar
    14    28    26    1
    15    28    12   ar
    16    26     9   ar
    17    31    27   ar
    18    37    12   ar
    19    24     4    1
    20    24    23   ar
    21     4    27    1
    22    27    30   ar
    23    35    32   ar
    24    15    13    1
    25     9    23   ar
    26    23     8    1
    27    30    32   ar
    28    30     6    1
    29     6    39    1
    30     8     1    1
    31    18    14   ar
    32    18    21   ar
    33    13    14    1
    34    13    17    1
    35    13    16    1
    36    14    19   ar
    37    21    20   ar
    38    20     1    1
    39    20    22   ar
    40    19    22   ar
    41     1     2    2
    42     1     3    2
@<TRIPOS>MOLECULE
9957262
 35 38 0 0 0
SMALL
GASTEIGER

@<TRIPOS>ATOM
      1 S          -2.7053    0.8827   -1.0364 S.O2    1  LIG11       0.0668
      2 O          -2.4277   -2.6355   -0.1742 O.3     1  LIG11      -0.4435
      3 O          -0.0366   -3.9103    0.8110 O.3     1  LIG11      -0.4771
      4 O          -3.6064    1.4931   -1.9914 O.2     1  LIG11      -0.1505
      5 O          -1.6156    1.6631   -0.4847 O.2     1  LIG11      -0.1505
      6 O          -4.1410   -5.0267   -0.1582 O.3     1  LIG11      -0.4914
      7 N          -2.0246   -0.4295   -1.8706 N.pl3   1  LIG11      -0.1968
      8 N           0.2312   -0.5736   -1.5299 N.ar    1  LIG11      -0.2044
      9 N           1.2400   -2.2067   -0.1316 N.ar    1  LIG11      -0.1867
     10 N           3.6407   -0.7885   -0.3043 N.ar    1  LIG11      -0.2331
     11 N           2.8090    0.2550   -2.2867 N.ar    1  LIG11      -0.2331
     12 C          -0.9575   -1.0945   -1.2011 C.ar    1  LIG11       0.1883
     13 C          -1.1545   -2.1658   -0.3514 C.ar    1  LIG11       0.2307
     14 C           0.0201   -2.7176    0.1207 C.ar    1  LIG11       0.2639
     15 C          -2.7781   -3.2776    0.9916 C.ar    1  LIG11       0.1702
     16 C          -3.6725    0.2368    0.2510 C.2     1  LIG11       0.0729
     17 C           1.3094   -1.1285   -0.9408 C.ar    1  LIG11       0.2027
     18 C          -3.6111   -4.4052    0.9405 C.ar    1  LIG11       0.1621
     19 C          -3.6594    0.8504    1.4458 C.2     1  LIG11      -0.0353
     20 C          -4.4127    0.4509    2.6472 C.ar    1  LIG11      -0.0237
     21 C          -2.4045   -2.7477    2.2395 C.ar    1  LIG11      -0.0157
     22 C           2.6498   -0.5269   -1.1923 C.ar    1  LIG11       0.1978
     23 C          -4.0149   -5.0041    2.1428 C.ar    1  LIG11      -0.0163
     24 C          -2.8008   -3.3671    3.4249 C.ar    1  LIG11      -0.0581
     25 C          -3.6044   -4.4995    3.3767 C.ar    1  LIG11      -0.0581
     26 C          -5.1832   -0.7156    2.7304 C.ar    1  LIG11      -0.0546
     27 C          -4.3235    1.2689    3.7847 C.ar    1  LIG11      -0.0546
     28 C          -5.8282   -1.0644    3.9217 C.ar    1  LIG11      -0.0612
     29 C          -4.9748    0.9256    4.9726 C.ar    1  LIG11      -0.0612
     30 C          -5.7230   -0.2452    5.0423 C.ar    1  LIG11      -0.0617
     31 C           1.1257   -4.1701    1.5920 C.3     1  LIG11       0.0805
     32 C          -3.5942   -4.7393   -1.4361 C.3     1  LIG11       0.0790
     33 C           4.8345   -0.2156   -0.5407 C.ar    1  LIG11       0.0315
     34 C           4.0274    0.7950   -2.4725 C.ar    1  LIG11       0.0315
     35 C           5.0870    0.5934   -1.6214 C.ar    1  LIG11      -0.0254
@<TRIPOS>BOND
     1     1     4    2
     2     1     5    2
     3     1     7    1
     4     1    16    1
     5     2    13    1
     6     2    15    1
     7     3    14    1
     8     3    31    1
     9     6    18    1
    10     6    32    1
    11     7    12    1
    12     8    12   ar
    13     8    17   ar
    14     9    14   ar
    15     9    17   ar
    16    10    22   ar
    17    10    33   ar
    18    11    22   ar
    19    11    34   ar
    20    12    13   ar
    21    13    14   ar
    22    15    18   ar
    23    15    21   ar
    24    16    19    2
    25    17    22    1
    26    18    23   ar
    27    19    20    1
    28    20    26   ar
    29    20    27   ar
    30    21    24   ar
    31    23    25   ar
    32    24    25   ar
    33    26    28   ar
    34    27    29   ar
    35    28    30   ar
    36    29    30   ar
    37    33    35   ar
    38    34    35   ar
