@<TRIPOS>MOLECULE
BOSENTAN_50CONFORMERS.pdb
 39 42 0 0 0
SMALL
GASTEIGER

@<TRIPOS>ATOM
      1  S1        -1.5920    0.7080    2.2740 S.O2    1  LGD1        0.0943
      2  O2        -1.3490    1.8560    1.3290 O.2     1  LGD1       -0.1483
      3  O3        -2.7870    0.6970    3.1730 O.2     1  LGD1       -0.1483
      4  O4        -2.3980   -2.8600   -0.2400 O.3     1  LGD1       -0.4427
      5  O5        -0.5350   -3.8030   -2.0080 O.3     1  LGD1       -0.4552
      6  O6        -0.5610   -4.4470    1.2970 O.3     1  LGD1       -0.4684
      7  O7        -0.5480   -6.8990   -2.1550 O.3     1  LGD1       -0.2162
      8  N8        -1.8000   -0.6880    1.3690 N.pl3   1  LGD1       -0.0737
      9  N9         0.3860   -0.5770    0.4390 N.ar    1  LGD1       -0.2027
     10  N10        0.9790   -2.0590   -1.4670 N.ar    1  LGD1       -0.1866
     11  N11        2.5480    0.7850   -1.4200 N.ar    1  LGD1       -0.2224
     12  N12        3.4430   -0.8800    0.2360 N.ar    1  LGD1       -0.2224
     13  C13        3.1410   -0.0020    5.9550 C.3     1  LGD1        0.0189
     14  C14        1.9750    0.1560    4.9860 C.ar    1  LGD1       -0.0227
     15  C15        4.4860    0.6590    5.5210 C.3     1  LGD1        0.0044
     16  C16        3.5350   -1.4280    6.3530 C.3     1  LGD1        0.0044
     17  C17        3.0070    0.7020    7.3280 C.3     1  LGD1        0.0044
     18  C18        0.7230   -0.3990    5.3040 C.ar    1  LGD1       -0.0029
     19  C19        2.0400    1.0120    3.8350 C.ar    1  LGD1       -0.0029
     20  C20       -0.1660    0.4230    3.2060 C.ar    1  LGD1        0.1271
     21  C21       -0.3230   -0.2830    4.3990 C.ar    1  LGD1        0.0199
     22  C22        0.9900    1.1550    2.9170 C.ar    1  LGD1        0.0199
     23  C23       -0.8410   -1.1750    0.5410 C.ar    1  LGD1        0.2125
     24  C24       -1.1550   -2.2170   -0.2970 C.ar    1  LGD1        0.2327
     25  C25       -0.2340   -2.6720   -1.2400 C.ar    1  LGD1        0.2651
     26  C26        1.1820   -1.0860   -0.5290 C.ar    1  LGD1        0.2028
     27  C27       -2.6560   -4.1830    0.0900 C.ar    1  LGD1        0.1793
     28  C28        2.4890   -0.2940   -0.5660 C.ar    1  LGD1        0.1990
     29  C29        0.6870   -4.5840   -2.2510 C.3     1  LGD1        0.2426
     30  C30       -1.7460   -5.0330    0.7980 C.ar    1  LGD1        0.1730
     31  C31       -3.8700   -4.7310   -0.3700 C.ar    1  LGD1        0.0406
     32  C32       -2.0730   -6.3770    1.0220 C.ar    1  LGD1        0.0401
     33  C33        0.2220   -5.9440   -2.9520 C.3     1  LGD1        0.2292
     34  C34       -4.1550   -6.0760   -0.0640 C.ar    1  LGD1        0.0033
     35  C35       -3.3260   -6.9020    0.6510 C.ar    1  LGD1        0.0033
     36  C36        3.7540    1.4140   -1.4170 C.ar    1  LGD1        0.1023
     37  C37        4.6230   -0.2490    0.2180 C.ar    1  LGD1        0.1023
     38  C38        4.8140    0.8600   -0.6520 C.ar    1  LGD1        0.0414
     39  C39       -0.2510   -4.7460    2.6710 C.3     1  LGD1        0.2526
@<TRIPOS>BOND
     1    33     7    1
     2    33    29    1
     3     5    29    1
     4     5    25    1
     5    10    25   ar
     6    10    26   ar
     7    36    11   ar
     8    36    38   ar
     9    11    28   ar
    10    25    24   ar
    11    38    37   ar
    12    34    31   ar
    13    34    35   ar
    14    28    26    1
    15    28    12   ar
    16    26     9   ar
    17    31    27   ar
    18    37    12   ar
    19    24     4    1
    20    24    23   ar
    21     4    27    1
    22    27    30   ar
    23    35    32   ar
    24    15    13    1
    25     9    23   ar
    26    23     8    1
    27    30    32   ar
    28    30     6    1
    29     6    39    1
    30     8     1    1
    31    18    14   ar
    32    18    21   ar
    33    13    14    1
    34    13    17    1
    35    13    16    1
    36    14    19   ar
    37    21    20   ar
    38    20     1    1
    39    20    22   ar
    40    19    22   ar
    41     1     2    2
    42     1     3    2
@<TRIPOS>MOLECULE
01012527H
 38 40 0 0 0
SMALL
GASTEIGER

@<TRIPOS>ATOM
      1 C           0.3875   -6.6759    0.4373 C.3     1  LIG11       0.0531
      2 C           1.2732   -5.4553    0.2340 C.3     1  LIG11      -0.0111
      3 C          -0.6638   -6.3470    1.4852 C.3     1  LIG11       0.0375
      4 C           1.4464   -7.6373    0.9656 C.2     1  LIG11       0.0509
      5 N           0.9497   -4.5332    1.4368 N.3     1  LIG11       0.2448
      6 C           1.0382   -4.6131   -1.0429 C.3     1  LIG11      -0.0039
      7 C          -2.0161   -6.0120    0.8676 C.ar    1  LIG11      -0.0313
      8 C          -0.0294   -5.2575    2.3455 C.3     1  LIG11      -0.0234
      9 O           1.7240   -7.5120    2.1917 O.co2   1  LIG11      -0.5493
     10 O           1.9997   -8.3375    0.0827 O.co2   1  LIG11      -0.5493
     11 C           2.2194   -4.1089    2.1761 C.3     1  LIG11       0.0465
     12 C           1.6044   -5.1376   -2.4022 C.3     1  LIG11      -0.0298
     13 C          -2.9528   -7.0508    0.7299 C.ar    1  LIG11      -0.0122
     14 C          -2.3830   -4.7200    0.4314 C.ar    1  LIG11      -0.0124
     15 C           1.9767   -2.9408    3.1483 C.2     1  LIG11       0.2608
     16 C           1.5335   -3.9931   -3.4688 C.3     1  LIG11      -0.0479
     17 C           0.7399   -6.2967   -2.9401 C.3     1  LIG11      -0.0596
     18 C           3.0535   -5.6387   -2.2698 C.3     1  LIG11      -0.0596
     19 C          -4.2032   -6.7571    0.2237 C.ar    1  LIG11       0.1702
     20 C          -3.6469   -4.4496   -0.1236 C.ar    1  LIG11       0.1656
     21 N           3.0868   -2.3114    3.7242 N.am    1  LIG11      -0.2971
     22 O           0.8191   -2.5767    3.3838 O.2     1  LIG11      -0.2697
     23 C           2.5023   -2.8179   -3.2698 C.3     1  LIG11      -0.0554
     24 C          -4.5520   -5.4908   -0.1916 C.ar    1  LIG11       0.2075
     25 O          -5.2180   -7.6543    0.0972 O.3     1  LIG11      -0.4525
     26 O          -3.8258   -3.1521   -0.5109 O.3     1  LIG11      -0.4913
     27 C           2.8271   -1.2100    4.6681 C.3     1  LIG11       0.0148
     28 C           4.4390   -2.4366    3.1592 C.3     1  LIG11       0.0148
     29 C           2.3450   -1.7792   -4.3715 C.3     1  LIG11      -0.0653
     30 O          -5.8445   -5.4507   -0.6238 O.3     1  LIG11      -0.4489
     31 C          -6.2792   -6.7976   -0.3560 C.3     1  LIG11       0.2334
     32 C          -4.9483   -2.8863   -1.3452 C.3     1  LIG11       0.0790
     33 C           3.9014   -0.9994    5.7406 C.3     1  LIG11      -0.0374
     34 C           5.2321   -3.5737    3.8011 C.3     1  LIG11      -0.0374
     35 C           3.5590    0.1858    6.6456 C.3     1  LIG11      -0.0545
     36 C           6.6186   -3.7533    3.1800 C.3     1  LIG11      -0.0545
     37 C           4.7040    0.5133    7.5920 C.3     1  LIG11      -0.0652
     38 C           6.5730   -4.2522    1.7428 C.3     1  LIG11      -0.0652
@<TRIPOS>BOND
     1     1     2    1
     2     1     3    1
     3     1     4    1
     4     2     5    1
     5     2     6    1
     6     3     8    1
     7     3     7    1
     8     4    10   ar
     9     4     9   ar
    10     5     8    1
    11     5    11    1
    12     6    12    1
    13     7    14   ar
    14     7    13   ar
    15    11    15    1
    16    12    18    1
    17    12    17    1
    18    12    16    1
    19    13    19   ar
    20    14    20   ar
    21    15    22    2
    22    15    21   am
    23    16    23    1
    24    19    25    1
    25    19    24   ar
    26    20    24   ar
    27    20    26    1
    28    21    28    1
    29    21    27    1
    30    23    29    1
    31    24    30    1
    32    25    31    1
    33    26    32    1
    34    27    33    1
    35    28    34    1
    36    30    31    1
    37    33    35    1
    38    34    36    1
    39    35    37    1
    40    36    38    1
