@<TRIPOS>MOLECULE
BOSENTAN_50CONFORMERS.pdb
 39 42 0 0 0
SMALL
GASTEIGER

@<TRIPOS>ATOM
      1  S1        -1.6380    0.4520    2.5530 S.O2    1  LGD1        0.0943
      2  O2        -0.9430    1.5530    1.8690 O.2     1  LGD1       -0.1483
      3  O3        -3.0960    0.5500    3.0770 O.2     1  LGD1       -0.1483
      4  O4        -2.4120   -2.8220   -0.2000 O.3     1  LGD1       -0.4427
      5  O5        -0.5340   -3.8120   -2.0060 O.3     1  LGD1       -0.4552
      6  O6        -0.4910   -4.3080    1.3710 O.3     1  LGD1       -0.4684
      7  O7        -0.4400   -6.6010   -2.4770 O.3     1  LGD1       -0.2162
      8  N8        -1.8270   -0.7290    1.3910 N.pl3   1  LGD1       -0.0737
      9  N9         0.4360   -0.6140    0.4870 N.ar    1  LGD1       -0.2027
     10  N10        0.8980   -2.0270   -1.4580 N.ar    1  LGD1       -0.1866
     11  N11        2.6950    0.8870   -0.3470 N.ar    1  LGD1       -0.2224
     12  N12        3.6270   -1.2550   -1.1730 N.ar    1  LGD1       -0.2224
     13  C13        1.7130   -2.4230    6.7540 C.3     1  LGD1        0.0189
     14  C14        0.8270   -1.7620    5.6840 C.ar    1  LGD1       -0.0227
     15  C15        1.0380   -3.2710    7.8820 C.3     1  LGD1        0.0044
     16  C16        2.4680   -1.2690    7.5150 C.3     1  LGD1        0.0044
     17  C17        2.6410   -3.4500    6.1780 C.3     1  LGD1        0.0044
     18  C18        1.4580   -1.1590    4.5770 C.ar    1  LGD1       -0.0029
     19  C19       -0.5930   -1.8260    5.6670 C.ar    1  LGD1       -0.0029
     20  C20       -0.6330   -0.2730    3.7730 C.ar    1  LGD1        0.1271
     21  C21        0.7930   -0.3520    3.6620 C.ar    1  LGD1        0.0199
     22  C22       -1.2860   -1.0290    4.7660 C.ar    1  LGD1        0.0199
     23  C23       -0.8480   -1.1160    0.4900 C.ar    1  LGD1        0.2125
     24  C24       -1.1770   -2.1910   -0.3460 C.ar    1  LGD1        0.2327
     25  C25       -0.2150   -2.7500   -1.1900 C.ar    1  LGD1        0.2651
     26  C26        1.2490   -1.0370   -0.5600 C.ar    1  LGD1        0.2028
     27  C27       -2.5510   -4.1770    0.1130 C.ar    1  LGD1        0.1793
     28  C28        2.6410   -0.3920   -0.7200 C.ar    1  LGD1        0.1990
     29  C29        0.6120   -4.5010   -2.4450 C.3     1  LGD1        0.2426
     30  C30       -1.6150   -4.9470    0.8760 C.ar    1  LGD1        0.1730
     31  C31       -3.6600   -4.7870   -0.4160 C.ar    1  LGD1        0.0406
     32  C32       -1.8490   -6.2890    1.1500 C.ar    1  LGD1        0.0401
     33  C33        0.1340   -5.6730   -3.3000 C.3     1  LGD1        0.2292
     34  C34       -3.8910   -6.1580   -0.1930 C.ar    1  LGD1        0.0033
     35  C35       -2.9220   -6.9580    0.5020 C.ar    1  LGD1        0.0033
     36  C36        4.0070    1.3460   -0.2270 C.ar    1  LGD1        0.1023
     37  C37        4.8520   -0.7130   -1.2390 C.ar    1  LGD1        0.1023
     38  C38        5.0570    0.5420   -0.6370 C.ar    1  LGD1        0.0414
     39  C39       -0.6190   -3.7450    2.7830 C.3     1  LGD1        0.2526
@<TRIPOS>BOND
     1    33     7    1
     2    33    29    1
     3     5    29    1
     4     5    25    1
     5    10    25   ar
     6    10    26   ar
     7    36    11   ar
     8    36    38   ar
     9    11    28   ar
    10    25    24   ar
    11    38    37   ar
    12    34    31   ar
    13    34    35   ar
    14    28    26    1
    15    28    12   ar
    16    26     9   ar
    17    31    27   ar
    18    37    12   ar
    19    24     4    1
    20    24    23   ar
    21     4    27    1
    22    27    30   ar
    23    35    32   ar
    24    15    13    1
    25     9    23   ar
    26    23     8    1
    27    30    32   ar
    28    30     6    1
    29     6    39    1
    30     8     1    1
    31    18    14   ar
    32    18    21   ar
    33    13    14    1
    34    13    17    1
    35    13    16    1
    36    14    19   ar
    37    21    20   ar
    38    20     1    1
    39    20    22   ar
    40    19    22   ar
    41     1     2    2
    42     1     3    2
@<TRIPOS>MOLECULE
01479498K
 34 38 0 0 0
SMALL
GASTEIGER

@<TRIPOS>ATOM
      1 C          -2.3060   -1.3933    2.7792 C.3     1  LIG11       0.1526
      2 C          -2.7736   -2.7877    2.4014 C.2     1  LIG11       0.0278
      3 C          -1.0990   -1.3249    3.7497 C.ar    1  LIG11       0.0009
      4 O          -2.0412   -0.5881    1.5919 O.3     1  LIG11      -0.4789
      5 C          -2.2518   -3.4266    1.3279 C.2     1  LIG11       0.0016
      6 C          -3.9565   -3.2949    3.2728 C.2     1  LIG11       0.0721
      7 C          -1.0340   -2.1510    4.8894 C.ar    1  LIG11      -0.0091
      8 C          -0.0683   -0.3620    3.5723 C.ar    1  LIG11      -0.0511
      9 C          -1.3072   -1.2342    0.6327 C.ar    1  LIG11       0.1298
     10 C          -1.3163   -2.6225    0.4974 C.ar    1  LIG11       0.0283
     11 C          -2.6398   -4.8067    0.9567 C.ar    1  LIG11      -0.0165
     12 O          -4.7428   -4.1286    2.7491 O.co2   1  LIG11      -0.5448
     13 O          -4.0504   -2.7605    4.4155 O.co2   1  LIG11      -0.5448
     14 C           0.0207   -2.0020    5.7687 C.ar    1  LIG11       0.1666
     15 C           1.0014   -0.2434    4.4689 C.ar    1  LIG11      -0.0158
     16 C          -0.5630   -0.4338   -0.2325 C.ar    1  LIG11      -0.0158
     17 C          -0.5232   -3.2045   -0.5087 C.ar    1  LIG11      -0.0087
     18 C          -3.5971   -5.0261   -0.0405 C.ar    1  LIG11      -0.0505
     19 C          -1.9893   -5.9030    1.5331 C.ar    1  LIG11      -0.0505
     20 C           1.0114   -1.0755    5.5612 C.ar    1  LIG11       0.1662
     21 O           0.2046   -2.7080    6.9180 O.3     1  LIG11      -0.4526
     22 C           0.2107   -1.0256   -1.2292 C.ar    1  LIG11      -0.0164
     23 C           0.2374   -2.4141   -1.3742 C.ar    1  LIG11       0.1217
     24 C          -3.9042   -6.3263   -0.4468 C.ar    1  LIG11      -0.0194
     25 C          -2.2960   -7.2051    1.1216 C.ar    1  LIG11      -0.0194
     26 O           1.9485   -1.0817    6.5502 O.3     1  LIG11      -0.4526
     27 C           1.3991   -2.0884    7.4256 C.3     1  LIG11       0.2332
     28 O           1.0158   -2.8585   -2.4075 O.3     1  LIG11      -0.4893
     29 C          -3.2644   -7.4199    0.1376 C.ar    1  LIG11       0.1201
     30 C           1.0965   -4.2645   -2.6659 C.3     1  LIG11       0.0946
     31 O          -3.6465   -8.6437   -0.3452 O.3     1  LIG11      -0.4951
     32 C          -0.1009   -4.7279   -3.4931 C.3     1  LIG11      -0.0281
     33 C           2.3833   -4.4838   -3.4608 C.3     1  LIG11      -0.0281
     34 C          -3.3945   -9.7469    0.5158 C.3     1  LIG11       0.0788
@<TRIPOS>BOND
     1     1     4    1
     2     1     2    1
     3     1     3    1
     4     2     5    2
     5     2     6    1
     6     3     8   ar
     7     3     7   ar
     8     4     9    1
     9     5    10    1
    10     5    11    1
    11     6    13   ar
    12     6    12   ar
    13     7    14   ar
    14     8    15   ar
    15     9    16   ar
    16     9    10   ar
    17    10    17   ar
    18    11    18   ar
    19    11    19   ar
    20    14    21    1
    21    14    20   ar
    22    15    20   ar
    23    16    22   ar
    24    17    23   ar
    25    18    24   ar
    26    19    25   ar
    27    20    26    1
    28    21    27    1
    29    22    23   ar
    30    23    28    1
    31    24    29   ar
    32    25    29   ar
    33    26    27    1
    34    28    30    1
    35    29    31    1
    36    30    33    1
    37    30    32    1
    38    31    34    1
