@<TRIPOS>MOLECULE
BOSENTAN_50CONFORMERS.pdb
 39 42 0 0 0
SMALL
GASTEIGER

@<TRIPOS>ATOM
      1  S1        -2.4950   -1.6640    2.7060 S.O2    1  LGD1        0.0943
      2  O2        -1.8280   -2.9600    2.9280 O.2     1  LGD1       -0.1483
      3  O3        -2.6300   -0.6740    3.8170 O.2     1  LGD1       -0.1483
      4  O4        -2.4400   -2.7280   -0.3120 O.3     1  LGD1       -0.4427
      5  O5        -0.5670   -3.8500   -1.9550 O.3     1  LGD1       -0.4552
      6  O6        -3.3430   -5.0710   -1.0790 O.3     1  LGD1       -0.4684
      7  O7        -0.6190   -6.7140   -1.6740 O.3     1  LGD1       -0.2162
      8  N8        -1.7450   -0.7030    1.5030 N.pl3   1  LGD1       -0.0737
      9  N9         0.3410   -0.5650    0.4280 N.ar    1  LGD1       -0.2027
     10  N10        1.0150   -2.0850   -1.3990 N.ar    1  LGD1       -0.1866
     11  N11        2.2660    1.0560   -0.9540 N.ar    1  LGD1       -0.2224
     12  N12        3.6640   -0.9650   -0.6650 N.ar    1  LGD1       -0.2224
     13  C13       -7.8810   -2.3520    0.0430 C.3     1  LGD1        0.0189
     14  C14       -6.5210   -2.1950    0.7770 C.ar    1  LGD1       -0.0227
     15  C15       -7.5560   -2.0840   -1.4690 C.3     1  LGD1        0.0044
     16  C16       -8.9730   -1.3260    0.3920 C.3     1  LGD1        0.0044
     17  C17       -8.5580   -3.7770    0.2410 C.3     1  LGD1        0.0044
     18  C18       -5.9580   -0.9310    0.9160 C.ar    1  LGD1       -0.0029
     19  C19       -5.8060   -3.3480    1.2670 C.ar    1  LGD1       -0.0029
     20  C20       -4.0740   -1.8970    2.0760 C.ar    1  LGD1        0.1271
     21  C21       -4.8140   -0.7740    1.6480 C.ar    1  LGD1        0.0199
     22  C22       -4.6000   -3.1950    1.9900 C.ar    1  LGD1        0.0199
     23  C23       -0.9000   -1.1570    0.4960 C.ar    1  LGD1        0.2125
     24  C24       -1.1610   -2.1800   -0.4240 C.ar    1  LGD1        0.2327
     25  C25       -0.2000   -2.6770   -1.3180 C.ar    1  LGD1        0.2651
     26  C26        1.1990   -1.0610   -0.5240 C.ar    1  LGD1        0.2028
     27  C27       -3.2660   -2.7670   -1.4700 C.ar    1  LGD1        0.1793
     28  C28        2.5010   -0.2370   -0.6900 C.ar    1  LGD1        0.1990
     29  C29        0.3550   -4.7250   -2.5860 C.3     1  LGD1        0.2426
     30  C30       -3.7790   -3.9830   -1.8420 C.ar    1  LGD1        0.1730
     31  C31       -3.6140   -1.6070   -2.1710 C.ar    1  LGD1        0.0406
     32  C32       -4.5480   -4.1150   -3.0200 C.ar    1  LGD1        0.0401
     33  C33       -0.2100   -6.0720   -2.9320 C.3     1  LGD1        0.2292
     34  C34       -4.4240   -1.7250   -3.3040 C.ar    1  LGD1        0.0033
     35  C35       -4.8260   -2.9650   -3.7970 C.ar    1  LGD1        0.0033
     36  C36        3.3810    1.7740   -1.0240 C.ar    1  LGD1        0.1023
     37  C37        4.7480   -0.1910   -0.8150 C.ar    1  LGD1        0.1023
     38  C38        4.6280    1.1830   -1.0370 C.ar    1  LGD1        0.0414
     39  C39       -4.4370   -6.0020   -0.7570 C.3     1  LGD1        0.2526
@<TRIPOS>BOND
     1    33     7    1
     2    33    29    1
     3     5    29    1
     4     5    25    1
     5    10    25   ar
     6    10    26   ar
     7    36    11   ar
     8    36    38   ar
     9    11    28   ar
    10    25    24   ar
    11    38    37   ar
    12    34    31   ar
    13    34    35   ar
    14    28    26    1
    15    28    12   ar
    16    26     9   ar
    17    31    27   ar
    18    37    12   ar
    19    24     4    1
    20    24    23   ar
    21     4    27    1
    22    27    30   ar
    23    35    32   ar
    24    15    13    1
    25     9    23   ar
    26    23     8    1
    27    30    32   ar
    28    30     6    1
    29     6    39    1
    30     8     1    1
    31    18    14   ar
    32    18    21   ar
    33    13    14    1
    34    13    17    1
    35    13    16    1
    36    14    19   ar
    37    21    20   ar
    38    20     1    1
    39    20    22   ar
    40    19    22   ar
    41     1     2    2
    42     1     3    2
@<TRIPOS>MOLECULE
*****
 27 29 0 0 0
SMALL
GASTEIGER

@<TRIPOS>ATOM
      1 C          -4.7331   -3.8297   -3.9485 C.ar    1  LIG11      -0.0615
      2 C          -3.3978   -3.4523   -3.8389 C.ar    1  LIG11      -0.0617
      3 C          -3.0237   -2.5123   -2.8847 C.ar    1  LIG11      -0.0615
      4 C          -3.9851   -1.9582   -2.0365 C.ar    1  LIG11      -0.0576
      5 C          -5.3431   -2.3333   -2.1173 C.ar    1  LIG11      -0.0332
      6 C          -5.6969   -3.2727   -3.1013 C.ar    1  LIG11      -0.0576
      7 C          -5.5392   -0.6559    1.0952 C.ar    1  LIG11      -0.0576
      8 C          -5.0344   -0.8098    2.3921 C.ar    1  LIG11      -0.0615
      9 C          -4.8177   -2.0786    2.9198 C.ar    1  LIG11      -0.0617
     10 C          -5.1032   -3.1990    2.1493 C.ar    1  LIG11      -0.0615
     11 C          -5.6118   -3.0449    0.8566 C.ar    1  LIG11      -0.0576
     12 N          -7.1036    0.9372   -5.0334 N.ar    1  LIG11      -0.2002
     13 C          -6.3914    0.5256   -3.9720 C.ar    1  LIG11       0.3190
     14 N          -5.0629    0.6693   -3.8374 N.ar    1  LIG11      -0.2002
     15 C          -4.4201    1.3388   -4.8074 C.ar    1  LIG11       0.0453
     16 C          -5.0736    1.8411   -5.9144 C.ar    1  LIG11      -0.0193
     17 C          -6.4340    1.6123   -5.9858 C.ar    1  LIG11       0.0453
     18 C          -7.2424    2.1093   -7.1438 C.3     1  LIG11      -0.0221
     19 C          -2.9388    1.4934   -4.6582 C.3     1  LIG11      -0.0221
     20 O          -7.0750   -0.2771   -3.0910 O.3     1  LIG11      -0.4519
     21 C          -6.6044   -0.1951   -1.7147 C.3     1  LIG11       0.1554
     22 C          -6.3970   -1.6569   -1.1622 C.3     1  LIG11       0.0601
     23 C          -7.6147    0.7214   -0.9665 C.2     1  LIG11       0.0833
     24 O          -8.7778    0.2689   -0.7722 O.co2   1  LIG11      -0.5460
     25 O          -7.1507    1.8538   -0.6244 O.co2   1  LIG11      -0.5460
     26 C          -5.8516   -1.7682    0.2991 C.ar    1  LIG11      -0.0332
     27 C          -7.7508   -2.4277   -1.1838 C.3     1  LIG11      -0.0477
@<TRIPOS>BOND
     1     1     2   ar
     2     2     3   ar
     3     3     4   ar
     4     4     5   ar
     5     5     6   ar
     6     5    22    1
     7     6     1   ar
     8     7     8   ar
     9     8     9   ar
    10     9    10   ar
    11    10    11   ar
    12    11    26   ar
    13    12    13   ar
    14    13    14   ar
    15    14    15   ar
    16    15    16   ar
    17    15    19    1
    18    16    17   ar
    19    17    12   ar
    20    17    18    1
    21    20    21    1
    22    20    13    1
    23    21    23    1
    24    21    22    1
    25    22    27    1
    26    22    26    1
    27    23    25   ar
    28    23    24   ar
    29    26     7   ar
