@<TRIPOS>MOLECULE
BOSENTAN_50CONFORMERS.pdb
 39 42 0 0 0
SMALL
GASTEIGER

@<TRIPOS>ATOM
      1  S1        -1.8260    0.8680    2.1150 S.O2    1  LGD1        0.0943
      2  O2        -3.2310    1.0510    2.6420 O.2     1  LGD1       -0.1483
      3  O3        -0.7360    0.8420    3.1650 O.2     1  LGD1       -0.1483
      4  O4        -2.4030   -2.7480   -0.1730 O.3     1  LGD1       -0.4427
      5  O5        -0.5250   -3.7950   -2.0950 O.3     1  LGD1       -0.4552
      6  O6        -2.8550   -0.2480   -1.8440 O.3     1  LGD1       -0.4684
      7  O7        -1.9730   -4.8030   -4.4000 O.3     1  LGD1       -0.2162
      8  N8        -1.8030   -0.6630    1.3420 N.pl3   1  LGD1       -0.0737
      9  N9         0.3910   -0.5170    0.4490 N.ar    1  LGD1       -0.2027
     10  N10        0.9160   -2.0940   -1.3960 N.ar    1  LGD1       -0.1866
     11  N11        2.6710    0.8150   -0.9050 N.ar    1  LGD1       -0.2224
     12  N12        3.5280   -1.4300   -0.5030 N.ar    1  LGD1       -0.2224
     13  C13       -0.5230    4.4800   -2.6490 C.3     1  LGD1        0.0189
     14  C14       -0.8270    3.6580   -1.3880 C.ar    1  LGD1       -0.0227
     15  C15       -1.6210    5.5800   -2.8100 C.3     1  LGD1        0.0044
     16  C16       -0.4680    3.6970   -4.0130 C.3     1  LGD1        0.0044
     17  C17        0.8300    5.1600   -2.6730 C.3     1  LGD1        0.0044
     18  C18        0.1540    3.3630   -0.3720 C.ar    1  LGD1       -0.0029
     19  C19       -2.1270    3.0610   -1.2730 C.ar    1  LGD1       -0.0029
     20  C20       -1.4510    1.9720    0.8310 C.ar    1  LGD1        0.1271
     21  C21       -0.1290    2.4730    0.7040 C.ar    1  LGD1        0.0199
     22  C22       -2.4280    2.2780   -0.1370 C.ar    1  LGD1        0.0199
     23  C23       -0.8140   -1.1840    0.5480 C.ar    1  LGD1        0.2125
     24  C24       -1.1190   -2.2490   -0.2350 C.ar    1  LGD1        0.2327
     25  C25       -0.2610   -2.7270   -1.2750 C.ar    1  LGD1        0.2651
     26  C26        1.1980   -1.0480   -0.5300 C.ar    1  LGD1        0.2028
     27  C27       -3.3080   -2.6450   -1.2120 C.ar    1  LGD1        0.1793
     28  C28        2.5710   -0.4720   -0.5450 C.ar    1  LGD1        0.1990
     29  C29       -0.0310   -3.6890   -3.4570 C.3     1  LGD1        0.2426
     30  C30       -3.5470   -1.4580   -2.0260 C.ar    1  LGD1        0.1730
     31  C31       -4.0820   -3.7780   -1.4710 C.ar    1  LGD1        0.0406
     32  C32       -4.5460   -1.5120   -2.9680 C.ar    1  LGD1        0.0401
     33  C33       -0.5230   -4.8470   -4.3420 C.3     1  LGD1        0.2292
     34  C34       -5.0600   -3.7560   -2.4690 C.ar    1  LGD1        0.0033
     35  C35       -5.2410   -2.6820   -3.2890 C.ar    1  LGD1        0.0033
     36  C36        3.9260    1.3540   -0.9780 C.ar    1  LGD1        0.1023
     37  C37        4.8260   -0.9910   -0.5450 C.ar    1  LGD1        0.1023
     38  C38        4.9700    0.4280   -0.7720 C.ar    1  LGD1        0.0414
     39  C39       -1.9900   -0.1040   -3.0090 C.3     1  LGD1        0.2526
@<TRIPOS>BOND
     1    33     7    1
     2    33    29    1
     3     5    29    1
     4     5    25    1
     5    10    25   ar
     6    10    26   ar
     7    36    11   ar
     8    36    38   ar
     9    11    28   ar
    10    25    24   ar
    11    38    37   ar
    12    34    31   ar
    13    34    35   ar
    14    28    26    1
    15    28    12   ar
    16    26     9   ar
    17    31    27   ar
    18    37    12   ar
    19    24     4    1
    20    24    23   ar
    21     4    27    1
    22    27    30   ar
    23    35    32   ar
    24    15    13    1
    25     9    23   ar
    26    23     8    1
    27    30    32   ar
    28    30     6    1
    29     6    39    1
    30     8     1    1
    31    18    14   ar
    32    18    21   ar
    33    13    14    1
    34    13    17    1
    35    13    16    1
    36    14    19   ar
    37    21    20   ar
    38    20     1    1
    39    20    22   ar
    40    19    22   ar
    41     1     2    2
    42     1     3    2
@<TRIPOS>MOLECULE
159594
 37 40 0 0 0
SMALL
GASTEIGER

@<TRIPOS>ATOM
      1 O          -5.0376    2.4142   -4.0407 O.co2   1  LIG11      -0.5493
      2 O          -6.2342    1.1426   -2.5665 O.co2   1  LIG11      -0.5493
      3 O           0.0375    5.2721   -0.0239 O.3     1  LIG11      -0.4526
      4 O           0.0034   -0.1516   -6.2053 O.2     1  LIG11      -0.2697
      5 O           0.3779    3.7246    1.7927 O.3     1  LIG11      -0.4526
      6 O          -5.2985   -5.1547   -1.4184 O.3     1  LIG11      -0.4951
      7 N          -2.2352   -0.0137   -3.6998 N.3     1  LIG11       0.2481
      8 N           0.4113   -1.6582   -4.5132 N.am    1  LIG11      -0.2971
      9 C          -3.8980    1.1602   -2.4194 C.3     1  LIG11       0.0574
     10 C          -2.7171    2.1109   -2.6562 C.3     1  LIG11       0.0378
     11 C          -3.7278   -0.0281   -3.3648 C.3     1  LIG11       0.0143
     12 C          -1.9160    1.4643   -3.7900 C.3     1  LIG11      -0.0230
     13 C          -1.8520    2.4344   -1.4417 C.ar    1  LIG11      -0.0347
     14 C          -4.1532   -1.3833   -2.8262 C.ar    1  LIG11       0.0011
     15 C          -1.9239   -0.7953   -4.9670 C.3     1  LIG11       0.0468
     16 C          -5.1897    1.6570   -3.0446 C.2     1  LIG11       0.0513
     17 C          -1.2769    3.7214   -1.3707 C.ar    1  LIG11      -0.0125
     18 C          -0.4291   -0.8621   -5.2946 C.2     1  LIG11       0.2608
     19 C          -1.6242    1.5351   -0.3772 C.ar    1  LIG11      -0.0544
     20 C          -5.1303   -2.1106   -3.5268 C.ar    1  LIG11      -0.0498
     21 C          -3.6087   -1.9502   -1.6679 C.ar    1  LIG11      -0.0498
     22 C          -0.5445    4.0659   -0.2535 C.ar    1  LIG11       0.1665
     23 C          -0.8686    1.9100    0.7433 C.ar    1  LIG11      -0.0159
     24 C          -0.3487    3.1843    0.7793 C.ar    1  LIG11       0.1662
     25 C          -5.5389   -3.3759   -3.0964 C.ar    1  LIG11      -0.0195
     26 C          -4.0216   -3.2149   -1.2386 C.ar    1  LIG11      -0.0195
     27 C           1.8644   -1.4818   -4.6903 C.3     1  LIG11       0.0148
     28 C          -0.0517   -2.6721   -3.5496 C.3     1  LIG11       0.0148
     29 C          -4.9856   -3.9339   -1.9479 C.ar    1  LIG11       0.1201
     30 C           2.4582   -0.2928   -3.9236 C.3     1  LIG11      -0.0374
     31 C           0.5701   -4.0735   -3.6904 C.3     1  LIG11      -0.0374
     32 C           0.5727    5.0678    1.2997 C.3     1  LIG11       0.2332
     33 C           2.2552    1.0508   -4.6262 C.3     1  LIG11      -0.0545
     34 C           0.6277   -4.6521   -5.1077 C.3     1  LIG11      -0.0545
     35 C           3.0630    2.1632   -3.9798 C.3     1  LIG11      -0.0652
     36 C          -0.7361   -4.8984   -5.7281 C.3     1  LIG11      -0.0652
     37 C          -6.3894   -5.8464   -2.0164 C.3     1  LIG11       0.0788
@<TRIPOS>BOND
     1     1    16   ar
     2     2    16   ar
     3     3    22    1
     4     3    32    1
     5     4    18    2
     6     5    24    1
     7     5    32    1
     8     6    29    1
     9     6    37    1
    10     7    11    1
    11     7    12    1
    12     7    15    1
    13     8    18   am
    14     8    27    1
    15     8    28    1
    16     9    10    1
    17     9    11    1
    18     9    16    1
    19    10    12    1
    20    10    13    1
    21    11    14    1
    22    13    17   ar
    23    13    19   ar
    24    14    20   ar
    25    14    21   ar
    26    15    18    1
    27    17    22   ar
    28    19    23   ar
    29    20    25   ar
    30    21    26   ar
    31    22    24   ar
    32    23    24   ar
    33    25    29   ar
    34    26    29   ar
    35    27    30    1
    36    28    31    1
    37    30    33    1
    38    31    34    1
    39    33    35    1
    40    34    36    1
