@<TRIPOS>MOLECULE
BOSENTAN_50CONFORMERS.pdb
 39 42 0 0 0
SMALL
GASTEIGER

@<TRIPOS>ATOM
      1  S1        -2.2100    0.8910    1.6560 S.O2    1  LGD1        0.0943
      2  O2        -3.6490    0.8670    2.0450 O.2     1  LGD1       -0.1483
      3  O3        -1.2600    1.5580    2.5080 O.2     1  LGD1       -0.1483
      4  O4        -2.3850   -2.9130   -0.0870 O.3     1  LGD1       -0.4427
      5  O5        -0.5280   -3.6880   -2.1330 O.3     1  LGD1       -0.4552
      6  O6        -2.6800   -1.2320   -2.4200 O.3     1  LGD1       -0.4684
      7  O7         0.5730   -5.7640   -3.9500 O.3     1  LGD1       -0.2162
      8  N8        -1.7610   -0.7060    1.4300 N.pl3   1  LGD1       -0.0737
      9  N9         0.3420   -0.5020    0.3260 N.ar    1  LGD1       -0.2027
     10  N10        0.9800   -2.1490   -1.2950 N.ar    1  LGD1       -0.1866
     11  N11        2.7090    0.3860   -1.7460 N.ar    1  LGD1       -0.2224
     12  N12        3.3510   -0.5520    0.3280 N.ar    1  LGD1       -0.2224
     13  C13       -1.3880    3.3940   -3.9040 C.3     1  LGD1        0.0189
     14  C14       -1.6690    2.8260   -2.4750 C.ar    1  LGD1       -0.0227
     15  C15       -2.3300    2.9240   -5.0310 C.3     1  LGD1        0.0044
     16  C16        0.0230    3.1680   -4.4080 C.3     1  LGD1        0.0044
     17  C17       -1.6750    4.9520   -3.8190 C.3     1  LGD1        0.0044
     18  C18       -0.6570    2.7740   -1.5080 C.ar    1  LGD1       -0.0029
     19  C19       -2.8800    2.1980   -2.1100 C.ar    1  LGD1       -0.0029
     20  C20       -2.0200    1.6530    0.0630 C.ar    1  LGD1        0.1271
     21  C21       -0.8150    2.2360   -0.2570 C.ar    1  LGD1        0.0199
     22  C22       -3.0480    1.5460   -0.8880 C.ar    1  LGD1        0.0199
     23  C23       -0.8250   -1.1310    0.5010 C.ar    1  LGD1        0.2125
     24  C24       -1.1650   -2.2800   -0.2740 C.ar    1  LGD1        0.2327
     25  C25       -0.2430   -2.7600   -1.1940 C.ar    1  LGD1        0.2651
     26  C26        1.1830   -1.0600   -0.5540 C.ar    1  LGD1        0.2028
     27  C27       -3.1620   -3.2130   -1.1610 C.ar    1  LGD1        0.1793
     28  C28        2.4780   -0.2990   -0.6400 C.ar    1  LGD1        0.1990
     29  C29       -0.3750   -5.1270   -1.7850 C.3     1  LGD1        0.2426
     30  C30       -3.2680   -2.4770   -2.3200 C.ar    1  LGD1        0.1730
     31  C31       -3.9780   -4.3280   -1.0640 C.ar    1  LGD1        0.0406
     32  C32       -4.1070   -2.8440   -3.3820 C.ar    1  LGD1        0.0401
     33  C33       -0.4930   -6.0060   -3.0100 C.3     1  LGD1        0.2292
     34  C34       -4.7580   -4.7850   -2.1190 C.ar    1  LGD1        0.0033
     35  C35       -4.8170   -4.0590   -3.2820 C.ar    1  LGD1        0.0033
     36  C36        3.9930    0.9670   -1.8590 C.ar    1  LGD1        0.1023
     37  C37        4.6300   -0.0210    0.2350 C.ar    1  LGD1        0.1023
     38  C38        4.8980    0.7820   -0.8340 C.ar    1  LGD1        0.0414
     39  C39       -1.8120   -0.9830   -3.6390 C.3     1  LGD1        0.2526
@<TRIPOS>BOND
     1    33     7    1
     2    33    29    1
     3     5    29    1
     4     5    25    1
     5    10    25   ar
     6    10    26   ar
     7    36    11   ar
     8    36    38   ar
     9    11    28   ar
    10    25    24   ar
    11    38    37   ar
    12    34    31   ar
    13    34    35   ar
    14    28    26    1
    15    28    12   ar
    16    26     9   ar
    17    31    27   ar
    18    37    12   ar
    19    24     4    1
    20    24    23   ar
    21     4    27    1
    22    27    30   ar
    23    35    32   ar
    24    15    13    1
    25     9    23   ar
    26    23     8    1
    27    30    32   ar
    28    30     6    1
    29     6    39    1
    30     8     1    1
    31    18    14   ar
    32    18    21   ar
    33    13    14    1
    34    13    17    1
    35    13    16    1
    36    14    19   ar
    37    21    20   ar
    38    20     1    1
    39    20    22   ar
    40    19    22   ar
    41     1     2    2
    42     1     3    2
@<TRIPOS>MOLECULE
178103
 37 41 0 0 0
SMALL
GASTEIGER

@<TRIPOS>ATOM
      1 O          -2.1316    0.5018   -4.7846 O.co2   1  LIG11      -0.5495
      2 O          -1.0823   -1.4899   -5.0334 O.co2   1  LIG11      -0.5495
      3 O           1.6097   -1.6128    1.9122 O.3     1  LIG11      -0.4920
      4 O          -0.0542    2.3451   -3.2660 O.3     1  LIG11      -0.4893
      5 O          -5.6665   -4.6170   -0.2784 O.3     1  LIG11      -0.4526
      6 O          -6.6672   -5.2310   -2.3873 O.3     1  LIG11      -0.4526
      7 O          -2.6375    4.9962   -0.2854 O.3     1  LIG11      -0.4950
      8 O          -0.9323    2.1557   -6.4356 O.3     1  LIG11      -0.3917
      9 C          -1.9300   -0.8993   -2.8855 C.3     1  LIG11       0.0203
     10 C          -0.8384   -0.1170   -2.1126 C.3     1  LIG11       0.0218
     11 C          -1.7718   -2.4019   -2.5375 C.3     1  LIG11       0.0184
     12 C          -0.4370   -1.0964   -1.0267 C.ar    1  LIG11      -0.0320
     13 C          -0.9479   -2.3701   -1.2713 C.ar    1  LIG11      -0.0353
     14 C          -1.3229    1.2342   -1.5926 C.ar    1  LIG11       0.0025
     15 C          -3.1181   -3.1199   -2.4770 C.ar    1  LIG11      -0.0356
     16 C          -1.6877   -0.6092   -4.3648 C.2     1  LIG11       0.0466
     17 C           0.4174   -0.8710    0.0486 C.ar    1  LIG11      -0.0159
     18 C          -0.5881   -3.4417   -0.4623 C.ar    1  LIG11      -0.0542
     19 C          -0.9272    2.4320   -2.2119 C.ar    1  LIG11       0.1278
     20 C           0.7645   -1.9372    0.8845 C.ar    1  LIG11       0.1208
     21 C          -3.7693   -3.4517   -1.2762 C.ar    1  LIG11      -0.0124
     22 C           0.2535   -3.2176    0.6312 C.ar    1  LIG11      -0.0196
     23 C          -3.7342   -3.4715   -3.7055 C.ar    1  LIG11      -0.0543
     24 C          -2.2208    1.3141   -0.5121 C.ar    1  LIG11      -0.0510
     25 C          -4.9481   -4.1679   -1.3449 C.ar    1  LIG11       0.1665
     26 C          -4.9447   -4.1707   -3.7461 C.ar    1  LIG11      -0.0159
     27 C          -1.3768    3.6651   -1.7219 C.ar    1  LIG11       0.0221
     28 C          -2.6844    2.5480   -0.0408 C.ar    1  LIG11      -0.0194
     29 C          -5.5181   -4.5199   -2.5450 C.ar    1  LIG11       0.1662
     30 C          -2.2654    3.7291   -0.6478 C.ar    1  LIG11       0.1236
     31 C           2.2838   -2.6989    2.5458 C.3     1  LIG11       0.0893
     32 C          -6.7252   -5.3273   -0.9505 C.3     1  LIG11       0.2332
     33 C          -0.3277    3.2528   -4.3438 C.3     1  LIG11       0.1126
     34 C           3.3963   -2.1381    3.4291 C.3     1  LIG11      -0.0215
     35 C           0.1591    2.6393   -5.6570 C.3     1  LIG11       0.0783
     36 C          -3.7127    5.0998    0.6382 C.3     1  LIG11       0.0788
     37 C           4.4538   -1.3991    2.6199 C.3     1  LIG11      -0.0622
@<TRIPOS>BOND
     1     1    16   ar
     2     2    16   ar
     3     3    20    1
     4     3    31    1
     5     4    19    1
     6     4    33    1
     7     5    25    1
     8     5    32    1
     9     6    29    1
    10     6    32    1
    11     7    30    1
    12     7    36    1
    13     8    35    1
    14     9    10    1
    15     9    11    1
    16     9    16    1
    17    10    12    1
    18    10    14    1
    19    11    13    1
    20    11    15    1
    21    12    13   ar
    22    12    17   ar
    23    13    18   ar
    24    14    19   ar
    25    14    24   ar
    26    15    21   ar
    27    15    23   ar
    28    17    20   ar
    29    18    22   ar
    30    19    27   ar
    31    20    22   ar
    32    21    25   ar
    33    23    26   ar
    34    24    28   ar
    35    25    29   ar
    36    26    29   ar
    37    27    30   ar
    38    28    30   ar
    39    31    34    1
    40    33    35    1
    41    34    37    1
