@<TRIPOS>MOLECULE
BOSENTAN_50CONFORMERS.pdb
 39 42 0 0 0
SMALL
GASTEIGER

@<TRIPOS>ATOM
      1  S1        -1.7320    0.1810    2.7740 S.O2    1  LGD1        0.0943
      2  O2        -0.6960    1.2920    2.6760 O.2     1  LGD1       -0.1483
      3  O3        -3.1660    0.4740    3.1050 O.2     1  LGD1       -0.1483
      4  O4        -2.3360   -2.8310   -0.1550 O.3     1  LGD1       -0.4427
      5  O5        -0.5580   -3.7380   -2.0900 O.3     1  LGD1       -0.4552
      6  O6        -0.9690   -4.7980    1.3410 O.3     1  LGD1       -0.4684
      7  O7        -1.3050   -6.4250   -3.2420 O.3     1  LGD1       -0.2162
      8  N8        -1.8450   -0.7360    1.3820 N.pl3   1  LGD1       -0.0737
      9  N9         0.3600   -0.5250    0.3520 N.ar    1  LGD1       -0.2027
     10  N10        0.9940   -2.1270   -1.4120 N.ar    1  LGD1       -0.1866
     11  N11        3.2240   -0.0770    0.4700 N.ar    1  LGD1       -0.2224
     12  N12        2.9320   -0.2110   -1.9940 N.ar    1  LGD1       -0.2224
     13  C13        0.3330   -3.7610    6.9160 C.3     1  LGD1        0.0189
     14  C14       -0.1710   -2.7530    5.8960 C.ar    1  LGD1       -0.0227
     15  C15        1.9150   -3.6670    7.0730 C.3     1  LGD1        0.0044
     16  C16       -0.0880   -5.2180    6.4090 C.3     1  LGD1        0.0044
     17  C17       -0.1450   -3.4970    8.3540 C.3     1  LGD1        0.0044
     18  C18       -1.5460   -2.5790    5.6760 C.ar    1  LGD1       -0.0029
     19  C19        0.7010   -2.0420    5.0230 C.ar    1  LGD1       -0.0029
     20  C20       -1.0980   -0.9700    3.9420 C.ar    1  LGD1        0.1271
     21  C21       -2.0580   -1.7110    4.6910 C.ar    1  LGD1        0.0199
     22  C22        0.2280   -1.1340    4.0490 C.ar    1  LGD1        0.0199
     23  C23       -0.8400   -1.1220    0.5410 C.ar    1  LGD1        0.2125
     24  C24       -1.1130   -2.2400   -0.2200 C.ar    1  LGD1        0.2327
     25  C25       -0.2440   -2.6980   -1.2050 C.ar    1  LGD1        0.2651
     26  C26        1.2290   -1.0910   -0.5400 C.ar    1  LGD1        0.2028
     27  C27       -2.8490   -3.3340    1.0040 C.ar    1  LGD1        0.1793
     28  C28        2.5950   -0.3870   -0.6740 C.ar    1  LGD1        0.1990
     29  C29        0.1070   -5.0070   -1.8720 C.3     1  LGD1        0.2426
     30  C30       -2.1780   -4.2910    1.7990 C.ar    1  LGD1        0.1730
     31  C31       -4.1470   -2.9820    1.4140 C.ar    1  LGD1        0.0406
     32  C32       -2.7210   -4.7500    3.0210 C.ar    1  LGD1        0.0401
     33  C33        0.0330   -5.8910   -3.1100 C.3     1  LGD1        0.2292
     34  C34       -4.7120   -3.4180    2.6420 C.ar    1  LGD1        0.0033
     35  C35       -3.9630   -4.2770    3.4700 C.ar    1  LGD1        0.0033
     36  C36        4.4920    0.4060    0.1910 C.ar    1  LGD1        0.1023
     37  C37        4.1020    0.5310   -2.1760 C.ar    1  LGD1        0.1023
     38  C38        4.8620    0.8340   -1.1080 C.ar    1  LGD1        0.0414
     39  C39        0.0660   -4.8260    2.3080 C.3     1  LGD1        0.2526
@<TRIPOS>BOND
     1    33     7    1
     2    33    29    1
     3     5    29    1
     4     5    25    1
     5    10    25   ar
     6    10    26   ar
     7    36    11   ar
     8    36    38   ar
     9    11    28   ar
    10    25    24   ar
    11    38    37   ar
    12    34    31   ar
    13    34    35   ar
    14    28    26    1
    15    28    12   ar
    16    26     9   ar
    17    31    27   ar
    18    37    12   ar
    19    24     4    1
    20    24    23   ar
    21     4    27    1
    22    27    30   ar
    23    35    32   ar
    24    15    13    1
    25     9    23   ar
    26    23     8    1
    27    30    32   ar
    28    30     6    1
    29     6    39    1
    30     8     1    1
    31    18    14   ar
    32    18    21   ar
    33    13    14    1
    34    13    17    1
    35    13    16    1
    36    14    19   ar
    37    21    20   ar
    38    20     1    1
    39    20    22   ar
    40    19    22   ar
    41     1     2    2
    42     1     3    2
@<TRIPOS>MOLECULE
123882
 66 71 0 0 0
SMALL
GASTEIGER

@<TRIPOS>ATOM
      1 S          -3.4147   -5.5191    3.3972 S.2     3  UNK33      -0.0993
      2 O           3.3940   -2.1309   -3.9903 O.2     1  UNK11      -0.2755
      3 O           3.7944   -6.2674    5.8317 O.2     4  LEU44      -0.2738
      4 O           1.9643   -2.7135   -0.4210 O.2     1  UNK11      -0.2737
      5 O           3.6450   -4.3639    2.2910 O.2     5  TRP55      -0.2738
      6 O           5.6239   -1.6394    0.3369 O.2     6  ASP66      -0.2738
      7 O          -0.5806   -5.8784    4.5703 O.2     3  UNK33      -0.2734
      8 O           0.9146   -6.8483    0.3909 O.2     2  ASP22      -0.2737
      9 OD1         7.9470   -3.9390    3.9293 O.co2   6  ASP66      -0.5497
     10 OD2         9.1892   -4.9646    2.3011 O.co2   6  ASP66      -0.5497
     11 OD1        -0.4556   -5.2579   -4.4217 O.co2   2  ASP22      -0.5497
     12 OD2         1.7829   -5.5131   -4.0045 O.co2   2  ASP22      -0.5497
     13 N           4.4342   -3.7174   -5.2732 N.am    1  UNK11      -0.2984
     14 N           5.5183   -4.2963   -7.9090 N.pl3   1  UNK11      -0.3269
     15 N           4.9024   -3.7002   -0.3847 N.am    1  UNK11      -0.3020
     16 N           2.6913   -4.5918    4.7390 N.am    5  TRP55      -0.3022
     17 N           1.2133   -6.2371    3.2341 N.am    4  LEU44      -0.3022
     18 N           5.5469   -3.2484    2.9128 N.am    6  ASP66      -0.3021
     19 N           2.1569   -4.7322   -1.4618 N.am    2  ASP22      -0.3021
     20 N          -0.1756   -4.9648    1.0162 N.am    3  UNK33      -0.2984
     21 NE1         1.0151   -0.6866    2.6969 N.ar    5  TRP55      -0.3604
     22 C           3.7805   -3.2050   -6.4800 C.3     1  UNK11       0.0304
     23 C           5.2579   -4.9194   -5.4644 C.3     1  UNK11       0.0304
     24 C           4.0688   -4.0449   -7.7373 C.3     1  UNK11       0.0280
     25 C           6.2049   -4.7754   -6.6785 C.3     1  UNK11       0.0280
     26 C           4.0740   -3.1587   -4.0547 C.2     1  UNK11       0.2179
     27 C           4.6281   -3.8181   -2.8064 C.3     1  UNK11       0.0510
     28 C           4.1066   -3.1902   -1.5101 C.3     1  UNK11       0.1076
     29 CA          2.0325   -6.9119    4.2591 C.3     4  LEU44       0.0997
     30 CB          2.8526   -8.0097    3.5534 C.3     4  LEU44      -0.0236
     31 CA          3.8185   -3.6715    4.6256 C.3     5  TRP55       0.1034
     32 C           6.2957   -3.4820   -8.7412 C.ar    1  UNK11       0.0298
     33 CG          3.6711   -8.9730    4.4357 C.3     4  LEU44      -0.0446
     34 CB          3.4394   -2.2347    5.0012 C.3     5  TRP55       0.0013
     35 C           2.9423   -5.9179    5.0187 C.2     4  LEU44       0.2340
     36 CA          6.2305   -3.6038    1.6691 C.3     6  ASP66       0.1045
     37 C           2.6262   -3.4759   -1.1329 C.2     1  UNK11       0.2344
     38 CG          2.2536   -1.6841    4.2598 C.ar    5  TRP55      -0.0201
     39 C           4.3089   -3.7959    3.1628 C.2     5  TRP55       0.2343
     40 C           5.5689   -2.8589    0.4864 C.2     6  ASP66       0.2343
     41 CA          0.7462   -5.0565   -1.2805 C.3     2  ASP22       0.1045
     42 CD2         2.8358   -9.6365    5.5288 C.3     4  LEU44      -0.0626
     43 CD1         4.3175  -10.0474    3.5532 C.3     4  LEU44      -0.0626
     44 C          -0.8993   -5.5908    2.1243 C.3     3  UNK33       0.1311
     45 C           7.5875   -3.8915   -9.1192 C.ar    1  UNK11      -0.0407
     46 C           5.8569   -2.2493   -9.2463 C.ar    1  UNK11      -0.0407
     47 CD2         0.8700   -1.7998    4.6223 C.ar    5  TRP55       0.0029
     48 C          -0.0898   -5.8297    3.4414 C.2     3  UNK33       0.2390
     49 CB          7.7082   -3.2340    1.7055 C.3     6  ASP66       0.0138
     50 CD1         2.2963   -0.9830    3.0721 C.ar    5  TRP55       0.0060
     51 CE2         0.1238   -1.1497    3.6373 C.ar    5  TRP55       0.0467
     52 C           0.5235   -5.7163    0.1016 C.2     2  ASP22       0.2345
     53 CB          0.2485   -6.0595   -2.3227 C.3     2  ASP22       0.0138
     54 C           8.4079   -3.1043   -9.9366 C.ar    1  UNK11      -0.0600
     55 C           6.6724   -1.4524  -10.0614 C.ar    1  UNK11      -0.0600
     56 C          -2.2200   -4.8611    2.3366 C.ar    3  UNK33       0.0189
     57 CE3         0.1813   -2.4191    5.6856 C.ar    5  TRP55      -0.0523
     58 C           7.9502   -1.8784  -10.4047 C.ar    1  UNK11      -0.0616
     59 CZ2        -1.2719   -1.0642    3.6801 C.ar    5  TRP55      -0.0378
     60 CG          8.3479   -4.1365    2.7431 C.2     6  ASP66       0.0440
     61 CZ3        -1.2155   -2.3600    5.7332 C.ar    5  TRP55      -0.0611
     62 C          -2.7280   -3.7443    1.6872 C.ar    3  UNK33      -0.0493
     63 CH2        -1.9301   -1.6836    4.7491 C.ar    5  TRP55      -0.0598
     64 CG          0.5473   -5.5526   -3.7196 C.2     2  ASP22       0.0440
     65 C          -4.0479   -3.4033    2.1042 C.ar    3  UNK33      -0.0544
     66 C          -4.5250   -4.2706    3.0573 C.ar    3  UNK33      -0.0240
@<TRIPOS>BOND
     1     1    56   ar
     2     1    66   ar
     3     2    26    2
     4     3    35    2
     5     4    37    2
     6     5    39    2
     7     6    40    2
     8     7    48    2
     9     8    52    2
    10     9    60   ar
    11    10    60   ar
    12    11    64   ar
    13    12    64   ar
    14    13    22    1
    15    13    23    1
    16    14    24    1
    17    14    25    1
    18    14    32    1
    19    15    28    1
    20    15    40   am
    21    16    35   am
    22    16    31    1
    23    17    48   am
    24    17    29    1
    25    18    39   am
    26    18    36    1
    27    19    37   am
    28    19    41    1
    29    20    52   am
    30    20    44    1
    31    21    50   ar
    32    21    51   ar
    33    22    24    1
    34    23    25    1
    35    26    27    1
    36    26    13   am
    37    28    37    1
    38    28    27    1
    39    29    35    1
    40    29    30    1
    41    30    33    1
    42    31    39    1
    43    31    34    1
    44    32    45   ar
    45    32    46   ar
    46    33    43    1
    47    33    42    1
    48    34    38    1
    49    36    40    1
    50    36    49    1
    51    38    47   ar
    52    38    50   ar
    53    41    52    1
    54    41    53    1
    55    44    48    1
    56    44    56    1
    57    45    54   ar
    58    46    55   ar
    59    47    57   ar
    60    47    51   ar
    61    49    60    1
    62    51    59   ar
    63    53    64    1
    64    54    58   ar
    65    55    58   ar
    66    56    62   ar
    67    57    61   ar
    68    59    63   ar
    69    61    63   ar
    70    62    65   ar
    71    65    66   ar
