@<TRIPOS>MOLECULE
BOSENTAN_50CONFORMERS.pdb
 39 42 0 0 0
SMALL
GASTEIGER

@<TRIPOS>ATOM
      1  S1        -1.8180   -1.3040    2.9190 S.O2    1  LGD1        0.0943
      2  O2        -0.9920   -2.5570    2.9330 O.2     1  LGD1       -0.1483
      3  O3        -1.4650   -0.1430    3.7450 O.2     1  LGD1       -0.1483
      4  O4        -2.3310   -3.0270   -0.0390 O.3     1  LGD1       -0.4427
      5  O5        -0.6020   -3.7280   -2.1830 O.3     1  LGD1       -0.4552
      6  O6        -4.1150   -5.1070    0.4720 O.3     1  LGD1       -0.4684
      7  O7        -0.9090   -4.8850   -4.9210 O.3     1  LGD1       -0.2162
      8  N8        -1.7480   -0.6300    1.4370 N.pl3   1  LGD1       -0.0737
      9  N9         0.3020   -0.4620    0.3810 N.ar    1  LGD1       -0.2027
     10  N10        0.9970   -2.1480   -1.3370 N.ar    1  LGD1       -0.1866
     11  N11        3.5020   -1.0990   -1.3780 N.ar    1  LGD1       -0.2224
     12  N12        2.5760    1.0050   -0.3820 N.ar    1  LGD1       -0.2224
     13  C13       -7.6460   -2.5010    3.4520 C.3     1  LGD1        0.0189
     14  C14       -6.1720   -2.2500    3.4930 C.ar    1  LGD1       -0.0227
     15  C15       -8.1790   -3.1380    4.7720 C.3     1  LGD1        0.0044
     16  C16       -8.1490   -3.4190    2.3450 C.3     1  LGD1        0.0044
     17  C17       -8.4710   -1.1970    3.2640 C.3     1  LGD1        0.0044
     18  C18       -5.6910   -0.9060    3.6680 C.ar    1  LGD1       -0.0029
     19  C19       -5.2300   -3.2730    3.3020 C.ar    1  LGD1       -0.0029
     20  C20       -3.4820   -1.6820    3.1470 C.ar    1  LGD1        0.1271
     21  C21       -4.3560   -0.6650    3.4890 C.ar    1  LGD1        0.0199
     22  C22       -3.8960   -3.0260    3.1370 C.ar    1  LGD1        0.0199
     23  C23       -0.8590   -1.1860    0.5180 C.ar    1  LGD1        0.2125
     24  C24       -1.1020   -2.2760   -0.2810 C.ar    1  LGD1        0.2327
     25  C25       -0.2010   -2.8410   -1.2110 C.ar    1  LGD1        0.2651
     26  C26        1.1950   -1.0050   -0.5160 C.ar    1  LGD1        0.2028
     27  C27       -3.6420   -2.8750   -0.5670 C.ar    1  LGD1        0.1793
     28  C28        2.5410   -0.2840   -0.7530 C.ar    1  LGD1        0.1990
     29  C29        0.4000   -4.4230   -2.9050 C.3     1  LGD1        0.2426
     30  C30       -4.5000   -3.9550   -0.2560 C.ar    1  LGD1        0.1730
     31  C31       -4.1300   -1.7550   -1.1030 C.ar    1  LGD1        0.0406
     32  C32       -5.8420   -3.8550   -0.7160 C.ar    1  LGD1        0.0401
     33  C33       -0.2710   -5.4790   -3.7750 C.3     1  LGD1        0.2292
     34  C34       -5.4460   -1.5930   -1.4810 C.ar    1  LGD1        0.0033
     35  C35       -6.2900   -2.6930   -1.3690 C.ar    1  LGD1        0.0033
     36  C36        4.6880   -0.4610   -1.6420 C.ar    1  LGD1        0.1023
     37  C37        3.7540    1.6380   -0.6350 C.ar    1  LGD1        0.1023
     38  C38        4.7630    0.8970   -1.2550 C.ar    1  LGD1        0.0414
     39  C39       -4.0070   -6.2920   -0.3130 C.3     1  LGD1        0.2526
@<TRIPOS>BOND
     1    33     7    1
     2    33    29    1
     3     5    29    1
     4     5    25    1
     5    10    25   ar
     6    10    26   ar
     7    36    11   ar
     8    36    38   ar
     9    11    28   ar
    10    25    24   ar
    11    38    37   ar
    12    34    31   ar
    13    34    35   ar
    14    28    26    1
    15    28    12   ar
    16    26     9   ar
    17    31    27   ar
    18    37    12   ar
    19    24     4    1
    20    24    23   ar
    21     4    27    1
    22    27    30   ar
    23    35    32   ar
    24    15    13    1
    25     9    23   ar
    26    23     8    1
    27    30    32   ar
    28    30     6    1
    29     6    39    1
    30     8     1    1
    31    18    14   ar
    32    18    21   ar
    33    13    14    1
    34    13    17    1
    35    13    16    1
    36    14    19   ar
    37    21    20   ar
    38    20     1    1
    39    20    22   ar
    40    19    22   ar
    41     1     2    2
    42     1     3    2
@<TRIPOS>MOLECULE
*****
 39 42 0 0 0
SMALL
GASTEIGER

@<TRIPOS>ATOM
      1 C          -3.8904   -6.4338   -6.5226 C.ar    1  LIG11       0.0483
      2 C          -3.1526   -6.4758   -7.6828 C.ar    1  LIG11       0.0543
      3 C          -1.7999   -6.2783   -7.5331 C.ar    1  LIG11       0.0483
      4 N          -1.2081   -6.0459   -6.3417 N.ar    1  LIG11      -0.2022
      5 N          -3.3532   -6.2115   -5.3039 N.ar    1  LIG11      -0.2022
      6 C          -5.6538   -3.0728   -1.3877 C.ar    1  LIG11      -0.0504
      7 C          -4.7302   -4.1028   -1.2032 C.ar    1  LIG11      -0.0583
      8 C          -3.3943   -3.8113   -0.9049 C.ar    1  LIG11      -0.0535
      9 C          -2.9369   -2.4855   -0.7893 C.ar    1  LIG11      -0.0094
     10 C          -3.8849   -1.4625   -0.9570 C.ar    1  LIG11      -0.0535
     11 C          -5.2246   -1.7506   -1.2451 C.ar    1  LIG11      -0.0583
     12 C          -5.7162   -0.8323    4.1055 C.ar    1  LIG11      -0.0561
     13 C          -4.3509   -0.6250    3.8814 C.ar    1  LIG11      -0.0348
     14 C          -3.6381   -1.5402    3.1116 C.ar    1  LIG11       0.1086
     15 C          -4.2696   -2.6714    2.6013 C.ar    1  LIG11      -0.0348
     16 C          -5.6352   -2.8650    2.8188 C.ar    1  LIG11      -0.0561
     17 C          -7.8960   -2.1566    3.8355 C.3     1  LIG11       0.0132
     18 C          -6.3933   -1.9460    3.5656 C.ar    1  LIG11      -0.0394
     19 C          -8.5263   -3.2542    2.9429 C.3     1  LIG11      -0.0537
     20 C          -8.7176   -0.8474    3.6390 C.3     1  LIG11       0.0533
     21 C          -8.0577   -2.6107    5.3035 C.3     1  LIG11      -0.0537
     22 O          -8.5857   -0.2847    2.3367 O.3     1  LIG11      -0.3942
     23 S          -1.8954   -1.3355    2.8494 S.O2    1  LIG11       0.0735
     24 O          -1.4314   -0.3291    3.7819 O.2     1  LIG11      -0.1499
     25 O          -1.3093   -2.6589    2.8046 O.2     1  LIG11      -0.1499
     26 N          -1.8678   -0.6029    1.3185 N.pl3   1  LIG11      -0.1988
     27 C          -1.5092   -2.1863   -0.5498 C.ar    1  LIG11       0.0847
     28 C          -0.4806   -2.7570   -1.2949 C.ar    1  LIG11       0.2276
     29 N           0.8326   -2.4901   -1.1326 N.ar    1  LIG11      -0.2008
     30 C           1.1340   -1.5946   -0.1901 C.ar    1  LIG11       0.1219
     31 N           0.2573   -0.9428    0.5756 N.ar    1  LIG11      -0.2186
     32 C          -1.0303   -1.2786    0.3874 C.ar    1  LIG11       0.1524
     33 C          -7.0822   -3.3685   -1.7344 C.3     1  LIG11      -0.0397
     34 O          -0.8315   -3.5356   -2.3803 O.3     1  LIG11      -0.4724
     35 C           0.1193   -4.5536   -2.7108 C.3     1  LIG11       0.1252
     36 C          -0.2395   -5.1022   -4.0910 C.3     1  LIG11       0.1267
     37 O          -1.5005   -5.7740   -4.0224 O.3     1  LIG11      -0.4590
     38 C          -2.0271   -6.0088   -5.2736 C.ar    1  LIG11       0.3180
     39 BR         -3.9379   -6.7813   -9.3598 Br      1  LIG11      -0.0472
@<TRIPOS>BOND
     1     1     2   ar
     2     2     3   ar
     3     2    39    1
     4     3     4   ar
     5     4    38   ar
     6     5     1   ar
     7     6     7   ar
     8     6    33    1
     9     7     8   ar
    10     8     9   ar
    11     9    10   ar
    12    10    11   ar
    13    11     6   ar
    14    12    13   ar
    15    13    14   ar
    16    14    15   ar
    17    15    16   ar
    18    16    18   ar
    19    17    18    1
    20    17    21    1
    21    17    20    1
    22    17    19    1
    23    18    12   ar
    24    20    22    1
    25    23    26    1
    26    23    25    2
    27    23    24    2
    28    23    14    1
    29    26    32    1
    30    27    28   ar
    31    27     9    1
    32    28    29   ar
    33    29    30   ar
    34    30    31   ar
    35    31    32   ar
    36    32    27   ar
    37    34    35    1
    38    34    28    1
    39    35    36    1
    40    36    37    1
    41    37    38    1
    42    38     5   ar
