@<TRIPOS>MOLECULE
BOSENTAN_50CONFORMERS.pdb
 39 42 0 0 0
SMALL
GASTEIGER

@<TRIPOS>ATOM
      1  S1        -1.9010    0.7350    2.1070 S.O2    1  LGD1        0.0943
      2  O2        -2.2190    1.7060    1.0150 O.2     1  LGD1       -0.1483
      3  O3        -2.9340    0.5200    3.1650 O.2     1  LGD1       -0.1483
      4  O4        -2.4950   -2.6220   -0.3510 O.3     1  LGD1       -0.4427
      5  O5        -0.5750   -3.8240   -1.9930 O.3     1  LGD1       -0.4552
      6  O6        -3.4290   -0.1480   -1.5820 O.3     1  LGD1       -0.4684
      7  O7        -0.4690   -6.6230   -2.5950 O.3     1  LGD1       -0.2162
      8  N8        -1.7630   -0.7910    1.4500 N.pl3   1  LGD1       -0.0737
      9  N9         0.3550   -0.5470    0.3910 N.ar    1  LGD1       -0.2027
     10  N10        1.0070   -2.1020   -1.3570 N.ar    1  LGD1       -0.1866
     11  N11        3.6550   -1.0420   -0.4940 N.ar    1  LGD1       -0.2224
     12  N12        2.4310    1.1000   -0.6890 N.ar    1  LGD1       -0.2224
     13  C13        3.5940    2.5400    4.3250 C.3     1  LGD1        0.0189
     14  C14        2.1730    2.0110    3.9460 C.ar    1  LGD1       -0.0227
     15  C15        4.3470    2.8100    2.9910 C.3     1  LGD1        0.0044
     16  C16        4.5060    1.5490    5.0450 C.3     1  LGD1        0.0044
     17  C17        3.5860    3.8300    5.1100 C.3     1  LGD1        0.0044
     18  C18        1.1940    2.9500    3.5610 C.ar    1  LGD1       -0.0029
     19  C19        1.8540    0.6780    3.8810 C.ar    1  LGD1       -0.0029
     20  C20       -0.3490    1.1930    2.9280 C.ar    1  LGD1        0.1271
     21  C21        0.0330    2.5480    3.0220 C.ar    1  LGD1        0.0199
     22  C22        0.5410    0.2300    3.4700 C.ar    1  LGD1        0.0199
     23  C23       -0.8130   -1.1370    0.5020 C.ar    1  LGD1        0.2125
     24  C24       -1.2100   -2.1330   -0.4100 C.ar    1  LGD1        0.2327
     25  C25       -0.2170   -2.7150   -1.2390 C.ar    1  LGD1        0.2651
     26  C26        1.1970   -1.0290   -0.5360 C.ar    1  LGD1        0.2028
     27  C27       -3.4930   -2.5220   -1.3120 C.ar    1  LGD1        0.1793
     28  C28        2.5300   -0.2640   -0.6280 C.ar    1  LGD1        0.1990
     29  C29        0.4620   -4.4220   -2.8220 C.3     1  LGD1        0.2426
     30  C30       -3.9320   -1.3720   -1.9560 C.ar    1  LGD1        0.1730
     31  C31       -4.0140   -3.7880   -1.7400 C.ar    1  LGD1        0.0406
     32  C32       -4.7150   -1.5550   -3.1040 C.ar    1  LGD1        0.0401
     33  C33       -0.1100   -5.6630   -3.5090 C.3     1  LGD1        0.2292
     34  C34       -4.7280   -3.9200   -2.8970 C.ar    1  LGD1        0.0033
     35  C35       -5.0590   -2.8040   -3.6020 C.ar    1  LGD1        0.0033
     36  C36        4.8170   -0.4000   -0.3840 C.ar    1  LGD1        0.1023
     37  C37        3.6920    1.7200   -0.6320 C.ar    1  LGD1        0.1023
     38  C38        4.8330    0.9570   -0.3990 C.ar    1  LGD1        0.0414
     39  C39       -2.3950    0.3980   -2.4960 C.3     1  LGD1        0.2526
@<TRIPOS>BOND
     1    33     7    1
     2    33    29    1
     3     5    29    1
     4     5    25    1
     5    10    25   ar
     6    10    26   ar
     7    36    11   ar
     8    36    38   ar
     9    11    28   ar
    10    25    24   ar
    11    38    37   ar
    12    34    31   ar
    13    34    35   ar
    14    28    26    1
    15    28    12   ar
    16    26     9   ar
    17    31    27   ar
    18    37    12   ar
    19    24     4    1
    20    24    23   ar
    21     4    27    1
    22    27    30   ar
    23    35    32   ar
    24    15    13    1
    25     9    23   ar
    26    23     8    1
    27    30    32   ar
    28    30     6    1
    29     6    39    1
    30     8     1    1
    31    18    14   ar
    32    18    21   ar
    33    13    14    1
    34    13    17    1
    35    13    16    1
    36    14    19   ar
    37    21    20   ar
    38    20     1    1
    39    20    22   ar
    40    19    22   ar
    41     1     2    2
    42     1     3    2
@<TRIPOS>MOLECULE
9957262
 35 38 0 0 0
SMALL
GASTEIGER

@<TRIPOS>ATOM
      1 S          -0.7590   -3.4126    2.7233 S.O2    1  LIG11       0.0668
      2 O          -2.4198   -2.8547   -0.3095 O.3     1  LIG11      -0.4435
      3 O          -2.0029   -0.3896   -1.7054 O.3     1  LIG11      -0.4771
      4 O          -0.3263   -4.4950    3.5835 O.2     1  LIG11      -0.1505
      5 O          -2.1801   -3.1442    2.6027 O.2     1  LIG11      -0.1505
      6 O          -1.4208   -3.8605   -2.7295 O.3     1  LIG11      -0.4914
      7 N          -0.2343   -3.8313    1.1630 N.pl3   1  LIG11      -0.1968
      8 N           1.1014   -2.2011    0.2502 N.ar    1  LIG11      -0.2044
      9 N           0.2761   -0.4933   -1.1795 N.ar    1  LIG11      -0.1867
     10 N           3.6936   -1.3164   -0.1994 N.ar    1  LIG11      -0.2331
     11 N           2.8274    0.6269   -1.2817 N.ar    1  LIG11      -0.2331
     12 C          -0.1323   -2.7262    0.2665 C.ar    1  LIG11       0.1883
     13 C          -1.2159   -2.2171   -0.4171 C.ar    1  LIG11       0.2307
     14 C          -0.9499   -1.0498   -1.1031 C.ar    1  LIG11       0.2639
     15 C          -3.2005   -2.9802   -1.4386 C.ar    1  LIG11       0.1702
     16 C           0.0794   -1.9671    3.2007 C.2     1  LIG11       0.0729
     17 C           1.2794   -1.1085   -0.5176 C.ar    1  LIG11       0.2027
     18 C          -2.7327   -3.4681   -2.6714 C.ar    1  LIG11       0.1621
     19 C          -0.5861   -0.8006    3.2373 C.2     1  LIG11      -0.0353
     20 C          -0.0080    0.5062    3.5814 C.ar    1  LIG11      -0.0237
     21 C          -4.5471   -2.6408   -1.2706 C.ar    1  LIG11      -0.0157
     22 C           2.6630   -0.5668   -0.6623 C.ar    1  LIG11       0.1978
     23 C          -3.6310   -3.5589   -3.7405 C.ar    1  LIG11      -0.0163
     24 C          -5.4300   -2.7362   -2.3426 C.ar    1  LIG11      -0.0581
     25 C          -4.9704   -3.1878   -3.5773 C.ar    1  LIG11      -0.0581
     26 C           1.3499    0.8081    3.4205 C.ar    1  LIG11      -0.0546
     27 C          -0.8718    1.5189    4.0263 C.ar    1  LIG11      -0.0546
     28 C           1.8346    2.0854    3.7195 C.ar    1  LIG11      -0.0612
     29 C          -0.3879    2.7956    4.3222 C.ar    1  LIG11      -0.0612
     30 C           0.9667    3.0776    4.1711 C.ar    1  LIG11      -0.0617
     31 C          -1.6147    0.7700   -2.4335 C.3     1  LIG11       0.0805
     32 C          -0.8631   -4.0581   -4.0232 C.3     1  LIG11       0.0790
     33 C           4.9343   -0.8338   -0.3916 C.ar    1  LIG11       0.0315
     34 C           4.0909    1.0636   -1.4348 C.ar    1  LIG11       0.0315
     35 C           5.1944    0.3642   -1.0101 C.ar    1  LIG11      -0.0254
@<TRIPOS>BOND
     1     1     4    2
     2     1     5    2
     3     1     7    1
     4     1    16    1
     5     2    13    1
     6     2    15    1
     7     3    14    1
     8     3    31    1
     9     6    18    1
    10     6    32    1
    11     7    12    1
    12     8    12   ar
    13     8    17   ar
    14     9    14   ar
    15     9    17   ar
    16    10    22   ar
    17    10    33   ar
    18    11    22   ar
    19    11    34   ar
    20    12    13   ar
    21    13    14   ar
    22    15    18   ar
    23    15    21   ar
    24    16    19    2
    25    17    22    1
    26    18    23   ar
    27    19    20    1
    28    20    26   ar
    29    20    27   ar
    30    21    24   ar
    31    23    25   ar
    32    24    25   ar
    33    26    28   ar
    34    27    29   ar
    35    28    30   ar
    36    29    30   ar
    37    33    35   ar
    38    34    35   ar
