@<TRIPOS>MOLECULE
BOSENTAN_50CONFORMERS.pdb
 39 42 0 0 0
SMALL
GASTEIGER

@<TRIPOS>ATOM
      1  S1        -1.8750    0.8810    1.9020 S.O2    1  LGD1        0.0943
      2  O2        -0.4850    1.4330    2.1710 O.2     1  LGD1       -0.1483
      3  O3        -2.7460    1.6410    0.9430 O.2     1  LGD1       -0.1483
      4  O4        -2.5330   -2.8560   -0.2030 O.3     1  LGD1       -0.4427
      5  O5        -0.5660   -3.7320   -2.0750 O.3     1  LGD1       -0.4552
      6  O6        -4.6690   -3.0700    1.4430 O.3     1  LGD1       -0.4684
      7  O7        -0.3610   -6.4310   -3.3060 O.3     1  LGD1       -0.2162
      8  N8        -1.7980   -0.6670    1.3760 N.pl3   1  LGD1       -0.0737
      9  N9         0.3840   -0.5540    0.4060 N.ar    1  LGD1       -0.2027
     10  N10        0.9830   -2.1010   -1.3900 N.ar    1  LGD1       -0.1866
     11  N11        3.0060   -0.2740   -1.9970 N.ar    1  LGD1       -0.2224
     12  N12        2.9650    0.3970    0.3750 N.ar    1  LGD1       -0.2224
     13  C13       -4.6440    0.4700    7.3320 C.3     1  LGD1        0.0189
     14  C14       -3.9960    0.5160    5.9730 C.ar    1  LGD1       -0.0227
     15  C15       -3.7470   -0.0570    8.4350 C.3     1  LGD1        0.0044
     16  C16       -5.7640   -0.5990    7.2780 C.3     1  LGD1        0.0044
     17  C17       -5.2260    1.7760    7.8220 C.3     1  LGD1        0.0044
     18  C18       -4.5650    1.3040    4.9640 C.ar    1  LGD1       -0.0029
     19  C19       -2.9090   -0.2740    5.6350 C.ar    1  LGD1       -0.0029
     20  C20       -2.7790    0.6810    3.4230 C.ar    1  LGD1        0.1271
     21  C21       -3.9880    1.3390    3.7120 C.ar    1  LGD1        0.0199
     22  C22       -2.2050   -0.1300    4.4490 C.ar    1  LGD1        0.0199
     23  C23       -0.8380   -1.1820    0.5410 C.ar    1  LGD1        0.2125
     24  C24       -1.2150   -2.2890   -0.2770 C.ar    1  LGD1        0.2327
     25  C25       -0.1800   -2.7250   -1.2010 C.ar    1  LGD1        0.2651
     26  C26        1.2110   -1.0290   -0.5730 C.ar    1  LGD1        0.2028
     27  C27       -3.7440   -2.2330   -0.5570 C.ar    1  LGD1        0.1793
     28  C28        2.4820   -0.2130   -0.7380 C.ar    1  LGD1        0.1990
     29  C29        0.3370   -4.0520   -3.1670 C.3     1  LGD1        0.2426
     30  C30       -4.8450   -2.2330    0.3130 C.ar    1  LGD1        0.1730
     31  C31       -3.8720   -1.4850   -1.7680 C.ar    1  LGD1        0.0406
     32  C32       -5.9800   -1.5090    0.0290 C.ar    1  LGD1        0.0401
     33  C33       -0.2720   -5.2170   -4.0130 C.3     1  LGD1        0.2292
     34  C34       -5.0220   -0.6910   -2.0130 C.ar    1  LGD1        0.0033
     35  C35       -6.0770   -0.7050   -1.1290 C.ar    1  LGD1        0.0033
     36  C36        4.0770    0.5470   -2.1800 C.ar    1  LGD1        0.1023
     37  C37        4.0400    1.1800    0.2170 C.ar    1  LGD1        0.1023
     38  C38        4.5470    1.2550   -1.1130 C.ar    1  LGD1        0.0414
     39  C39       -5.1820   -2.5490    2.6760 C.3     1  LGD1        0.2526
@<TRIPOS>BOND
     1    33     7    1
     2    33    29    1
     3     5    29    1
     4     5    25    1
     5    10    25   ar
     6    10    26   ar
     7    36    11   ar
     8    36    38   ar
     9    11    28   ar
    10    25    24   ar
    11    38    37   ar
    12    34    31   ar
    13    34    35   ar
    14    28    26    1
    15    28    12   ar
    16    26     9   ar
    17    31    27   ar
    18    37    12   ar
    19    24     4    1
    20    24    23   ar
    21     4    27    1
    22    27    30   ar
    23    35    32   ar
    24    15    13    1
    25     9    23   ar
    26    23     8    1
    27    30    32   ar
    28    30     6    1
    29     6    39    1
    30     8     1    1
    31    18    14   ar
    32    18    21   ar
    33    13    14    1
    34    13    17    1
    35    13    16    1
    36    14    19   ar
    37    21    20   ar
    38    20     1    1
    39    20    22   ar
    40    19    22   ar
    41     1     2    2
    42     1     3    2
@<TRIPOS>MOLECULE
*****
 39 42 0 0 0
SMALL
GASTEIGER

@<TRIPOS>ATOM
      1 C          -2.1131   -3.4420   -7.8811 C.ar    1  LIG11       0.0483
      2 C          -3.4160   -3.8780   -7.9487 C.ar    1  LIG11       0.0543
      3 C          -4.3138   -3.1903   -7.1660 C.ar    1  LIG11       0.0483
      4 N          -3.9685   -2.1569   -6.3700 N.ar    1  LIG11      -0.2022
      5 N          -1.7083   -2.4199   -7.0966 N.ar    1  LIG11      -0.2022
      6 C          -6.1176   -1.1727   -1.1565 C.ar    1  LIG11      -0.0504
      7 C          -5.5372   -1.7474   -0.0255 C.ar    1  LIG11      -0.0583
      8 C          -4.1430   -1.8530    0.0869 C.ar    1  LIG11      -0.0535
      9 C          -3.2745   -1.3687   -0.9102 C.ar    1  LIG11      -0.0094
     10 C          -3.8881   -0.7971   -2.0414 C.ar    1  LIG11      -0.0535
     11 C          -5.2810   -0.7209   -2.1761 C.ar    1  LIG11      -0.0583
     12 C          -2.6910    0.1095    5.8891 C.ar    1  LIG11      -0.0561
     13 C          -2.0220    0.1471    4.6627 C.ar    1  LIG11      -0.0348
     14 C          -2.6919    0.5841    3.5188 C.ar    1  LIG11       0.1086
     15 C          -4.0183    0.9940    3.5941 C.ar    1  LIG11      -0.0348
     16 C          -4.6755    0.9668    4.8304 C.ar    1  LIG11      -0.0561
     17 C          -4.7718    0.5101    7.3624 C.3     1  LIG11       0.0132
     18 C          -4.0250    0.5413    6.0090 C.ar    1  LIG11      -0.0394
     19 C          -5.5778   -0.8039    7.4203 C.3     1  LIG11      -0.0537
     20 C          -3.8321    0.5451    8.6050 C.3     1  LIG11       0.0533
     21 C          -5.7507    1.7008    7.5042 C.3     1  LIG11      -0.0537
     22 O          -3.1067    1.7671    8.7132 O.3     1  LIG11      -0.3942
     23 S          -1.8100    0.6263    1.9747 S.O2    1  LIG11       0.0735
     24 O          -0.4922    1.1472    2.2688 O.2     1  LIG11      -0.1499
     25 O          -2.6609    1.2344    0.9776 O.2     1  LIG11      -0.1499
     26 N          -1.6681   -1.0394    1.6777 N.pl3   1  LIG11      -0.1988
     27 C          -1.7929   -1.4609   -0.7828 C.ar    1  LIG11       0.0847
     28 C          -0.9292   -1.7413   -1.8447 C.ar    1  LIG11       0.2276
     29 N           0.4137   -1.8540   -1.7438 N.ar    1  LIG11      -0.2008
     30 C           0.9353   -1.6996   -0.5295 C.ar    1  LIG11       0.1219
     31 N           0.2416   -1.4623    0.5788 N.ar    1  LIG11      -0.2186
     32 C          -1.0870   -1.3292    0.4109 C.ar    1  LIG11       0.1524
     33 C          -7.6077   -1.0963   -1.3012 C.3     1  LIG11      -0.0397
     34 O          -1.4824   -2.0295   -3.0736 O.3     1  LIG11      -0.4724
     35 C          -0.6064   -2.0054   -4.2071 C.3     1  LIG11       0.1252
     36 C          -0.9640   -0.8118   -5.0998 C.3     1  LIG11       0.1267
     37 O          -2.3362   -0.8064   -5.5058 O.3     1  LIG11      -0.4590
     38 C          -2.6683   -1.8294   -6.3616 C.ar    1  LIG11       0.3180
     39 BR         -3.9325   -5.3190   -9.0337 Br      1  LIG11      -0.0472
@<TRIPOS>BOND
     1     1     2   ar
     2     2     3   ar
     3     2    39    1
     4     3     4   ar
     5     4    38   ar
     6     5     1   ar
     7     6     7   ar
     8     6    33    1
     9     7     8   ar
    10     8     9   ar
    11     9    10   ar
    12    10    11   ar
    13    11     6   ar
    14    12    13   ar
    15    13    14   ar
    16    14    15   ar
    17    15    16   ar
    18    16    18   ar
    19    17    18    1
    20    17    21    1
    21    17    20    1
    22    17    19    1
    23    18    12   ar
    24    20    22    1
    25    23    26    1
    26    23    25    2
    27    23    24    2
    28    23    14    1
    29    26    32    1
    30    27    28   ar
    31    27     9    1
    32    28    29   ar
    33    29    30   ar
    34    30    31   ar
    35    31    32   ar
    36    32    27   ar
    37    34    35    1
    38    34    28    1
    39    35    36    1
    40    36    37    1
    41    37    38    1
    42    38     5   ar
