@<TRIPOS>MOLECULE
BOSENTAN_50CONFORMERS.pdb
 39 42 0 0 0
SMALL
GASTEIGER

@<TRIPOS>ATOM
      1  S1        -1.6070    0.0920    2.8580 S.O2    1  LGD1        0.0943
      2  O2        -0.3110    0.8560    2.8660 O.2     1  LGD1       -0.1483
      3  O3        -2.9700    0.7120    3.0790 O.2     1  LGD1       -0.1483
      4  O4        -2.3490   -2.8410   -0.1210 O.3     1  LGD1       -0.4427
      5  O5        -0.5570   -3.7730   -2.0350 O.3     1  LGD1       -0.4552
      6  O6        -0.5230   -4.5100    1.2170 O.3     1  LGD1       -0.4684
      7  O7        -1.6420   -2.1520   -4.1820 O.3     1  LGD1       -0.2162
      8  N8        -1.8160   -0.6830    1.3870 N.pl3   1  LGD1       -0.0737
      9  N9         0.3420   -0.5580    0.4050 N.ar    1  LGD1       -0.2027
     10  N10        1.0090   -2.1480   -1.3520 N.ar    1  LGD1       -0.1866
     11  N11        2.8980   -0.2150   -2.1390 N.ar    1  LGD1       -0.2224
     12  N12        3.2570    0.0860    0.3300 N.ar    1  LGD1       -0.2224
     13  C13       -0.9190   -4.3990    6.9510 C.3     1  LGD1        0.0189
     14  C14       -1.1070   -3.3290    5.8990 C.ar    1  LGD1       -0.0227
     15  C15       -2.0580   -5.3380    7.1440 C.3     1  LGD1        0.0044
     16  C16       -0.6580   -3.7100    8.2760 C.3     1  LGD1        0.0044
     17  C17        0.3110   -5.2790    6.5650 C.3     1  LGD1        0.0044
     18  C18        0.0050   -2.5630    5.4820 C.ar    1  LGD1       -0.0029
     19  C19       -2.3740   -3.0670    5.3370 C.ar    1  LGD1       -0.0029
     20  C20       -1.4260   -1.2800    4.0070 C.ar    1  LGD1        0.1271
     21  C21       -0.1900   -1.5310    4.5770 C.ar    1  LGD1        0.0199
     22  C22       -2.5230   -2.0890    4.3090 C.ar    1  LGD1        0.0199
     23  C23       -0.7980   -1.2090    0.6070 C.ar    1  LGD1        0.2125
     24  C24       -1.1430   -2.2070   -0.3380 C.ar    1  LGD1        0.2327
     25  C25       -0.2400   -2.6810   -1.2650 C.ar    1  LGD1        0.2651
     26  C26        1.1840   -1.0180   -0.6010 C.ar    1  LGD1        0.2028
     27  C27       -2.7210   -3.7350    0.8620 C.ar    1  LGD1        0.1793
     28  C28        2.5660   -0.3210   -0.8190 C.ar    1  LGD1        0.1990
     29  C29        0.0040   -3.9220   -3.3740 C.3     1  LGD1        0.2426
     30  C30       -1.8210   -4.4990    1.5890 C.ar    1  LGD1        0.1730
     31  C31       -4.0420   -3.6890    1.2250 C.ar    1  LGD1        0.0406
     32  C32       -2.3080   -5.2940    2.6620 C.ar    1  LGD1        0.0401
     33  C33       -0.3190   -2.7450   -4.3280 C.3     1  LGD1        0.2292
     34  C34       -4.4970   -4.4980    2.2450 C.ar    1  LGD1        0.0033
     35  C35       -3.6120   -5.2300    3.0280 C.ar    1  LGD1        0.0033
     36  C36        4.0710    0.4000   -2.3870 C.ar    1  LGD1        0.1023
     37  C37        4.4460    0.7100    0.0550 C.ar    1  LGD1        0.1023
     38  C38        4.8340    0.8120   -1.2990 C.ar    1  LGD1        0.0414
     39  C39        0.0830   -5.7810    1.4220 C.3     1  LGD1        0.2526
@<TRIPOS>BOND
     1    33     7    1
     2    33    29    1
     3     5    29    1
     4     5    25    1
     5    10    25   ar
     6    10    26   ar
     7    36    11   ar
     8    36    38   ar
     9    11    28   ar
    10    25    24   ar
    11    38    37   ar
    12    34    31   ar
    13    34    35   ar
    14    28    26    1
    15    28    12   ar
    16    26     9   ar
    17    31    27   ar
    18    37    12   ar
    19    24     4    1
    20    24    23   ar
    21     4    27    1
    22    27    30   ar
    23    35    32   ar
    24    15    13    1
    25     9    23   ar
    26    23     8    1
    27    30    32   ar
    28    30     6    1
    29     6    39    1
    30     8     1    1
    31    18    14   ar
    32    18    21   ar
    33    13    14    1
    34    13    17    1
    35    13    16    1
    36    14    19   ar
    37    21    20   ar
    38    20     1    1
    39    20    22   ar
    40    19    22   ar
    41     1     2    2
    42     1     3    2
@<TRIPOS>MOLECULE
46174111
 29 32 0 0 0
SMALL
GASTEIGER

@<TRIPOS>ATOM
      1 CL         -5.5520    0.9949   -1.2977 Cl      1  LIG11      -0.0762
      2 S          -4.9558   -2.1514    0.4541 S.O2    1  LIG11       0.0758
      3 S          -3.1891   -5.1084    3.0228 S.2     1  LIG11      -0.0918
      4 O          -0.0672    0.1652    3.9620 O.3     1  LIG11      -0.4526
      5 O           1.6404   -1.2712    4.8757 O.3     1  LIG11      -0.4526
      6 O          -5.3943   -2.0150    3.6965 O.2     1  LIG11      -0.2911
      7 O          -6.0715   -2.8262   -0.1746 O.2     1  LIG11      -0.1499
      8 O          -3.8461   -1.6438   -0.3249 O.2     1  LIG11      -0.1499
      9 O          -4.3726    0.9371    2.4055 O.2     1  LIG11      -0.3364
     10 N          -5.5815   -0.9439    1.4336 N.pl3   1  LIG11      -0.1821
     11 N          -3.8552    2.1619    2.0248 N.ar    1  LIG11      -0.0798
     12 C          -2.2853   -2.5295    5.1655 C.ar    1  LIG11      -0.0333
     13 C          -3.7583   -2.8938    5.1795 C.3     1  LIG11       0.0366
     14 C          -1.2785   -3.3494    5.7529 C.ar    1  LIG11      -0.0432
     15 C          -4.1887   -3.4549    1.3346 C.ar    1  LIG11       0.1261
     16 C          -4.0068   -3.6237    2.7008 C.ar    1  LIG11       0.0814
     17 C          -1.9147   -1.3026    4.5704 C.ar    1  LIG11      -0.0123
     18 C          -4.4475   -2.7952    3.8190 C.2     1  LIG11       0.1759
     19 C          -0.5798   -0.9644    4.5172 C.ar    1  LIG11       0.1665
     20 C           0.3899   -1.7780    5.0392 C.ar    1  LIG11       0.1665
     21 C           0.0757   -2.9655    5.6596 C.ar    1  LIG11      -0.0130
     22 C          -1.5555   -4.6570    6.4485 C.3     1  LIG11      -0.0393
     23 C          -3.6073   -4.5350    0.5790 C.ar    1  LIG11      -0.0273
     24 C           1.3431   -0.0386    4.1866 C.3     1  LIG11       0.2332
     25 C          -3.0269   -5.4896    1.3758 C.ar    1  LIG11      -0.0217
     26 C          -4.9467    0.3229    1.3338 C.ar    1  LIG11       0.2554
     27 C          -4.8798    1.1708    0.2508 C.ar    1  LIG11       0.1262
     28 C          -4.1747    2.3011    0.7307 C.ar    1  LIG11       0.1009
     29 C          -3.8236    3.5492    0.0151 C.3     1  LIG11      -0.0176
@<TRIPOS>BOND
     1     1    27    1
     2     2    10    1
     3     2    15    1
     4     2     8    2
     5     2     7    2
     6     3    16   ar
     7     3    25   ar
     8     4    24    1
     9     4    19    1
    10     5    20    1
    11     5    24    1
    12     6    18    2
    13     9    11   ar
    14     9    26   ar
    15    10    26    1
    16    11    28   ar
    17    12    17   ar
    18    12    14   ar
    19    13    18    1
    20    13    12    1
    21    14    21   ar
    22    14    22    1
    23    15    23   ar
    24    15    16   ar
    25    16    18    1
    26    17    19   ar
    27    19    20   ar
    28    20    21   ar
    29    23    25   ar
    30    26    27   ar
    31    27    28   ar
    32    28    29    1
