@<TRIPOS>MOLECULE
BOSENTAN_50CONFORMERS.pdb
 39 42 0 0 0
SMALL
GASTEIGER

@<TRIPOS>ATOM
      1  S1        -1.8180   -1.3040    2.9190 S.O2    1  LGD1        0.0943
      2  O2        -0.9920   -2.5570    2.9330 O.2     1  LGD1       -0.1483
      3  O3        -1.4650   -0.1430    3.7450 O.2     1  LGD1       -0.1483
      4  O4        -2.3310   -3.0270   -0.0390 O.3     1  LGD1       -0.4427
      5  O5        -0.6020   -3.7280   -2.1830 O.3     1  LGD1       -0.4552
      6  O6        -4.1150   -5.1070    0.4720 O.3     1  LGD1       -0.4684
      7  O7        -0.9090   -4.8850   -4.9210 O.3     1  LGD1       -0.2162
      8  N8        -1.7480   -0.6300    1.4370 N.pl3   1  LGD1       -0.0737
      9  N9         0.3020   -0.4620    0.3810 N.ar    1  LGD1       -0.2027
     10  N10        0.9970   -2.1480   -1.3370 N.ar    1  LGD1       -0.1866
     11  N11        3.5020   -1.0990   -1.3780 N.ar    1  LGD1       -0.2224
     12  N12        2.5760    1.0050   -0.3820 N.ar    1  LGD1       -0.2224
     13  C13       -7.6460   -2.5010    3.4520 C.3     1  LGD1        0.0189
     14  C14       -6.1720   -2.2500    3.4930 C.ar    1  LGD1       -0.0227
     15  C15       -8.1790   -3.1380    4.7720 C.3     1  LGD1        0.0044
     16  C16       -8.1490   -3.4190    2.3450 C.3     1  LGD1        0.0044
     17  C17       -8.4710   -1.1970    3.2640 C.3     1  LGD1        0.0044
     18  C18       -5.6910   -0.9060    3.6680 C.ar    1  LGD1       -0.0029
     19  C19       -5.2300   -3.2730    3.3020 C.ar    1  LGD1       -0.0029
     20  C20       -3.4820   -1.6820    3.1470 C.ar    1  LGD1        0.1271
     21  C21       -4.3560   -0.6650    3.4890 C.ar    1  LGD1        0.0199
     22  C22       -3.8960   -3.0260    3.1370 C.ar    1  LGD1        0.0199
     23  C23       -0.8590   -1.1860    0.5180 C.ar    1  LGD1        0.2125
     24  C24       -1.1020   -2.2760   -0.2810 C.ar    1  LGD1        0.2327
     25  C25       -0.2010   -2.8410   -1.2110 C.ar    1  LGD1        0.2651
     26  C26        1.1950   -1.0050   -0.5160 C.ar    1  LGD1        0.2028
     27  C27       -3.6420   -2.8750   -0.5670 C.ar    1  LGD1        0.1793
     28  C28        2.5410   -0.2840   -0.7530 C.ar    1  LGD1        0.1990
     29  C29        0.4000   -4.4230   -2.9050 C.3     1  LGD1        0.2426
     30  C30       -4.5000   -3.9550   -0.2560 C.ar    1  LGD1        0.1730
     31  C31       -4.1300   -1.7550   -1.1030 C.ar    1  LGD1        0.0406
     32  C32       -5.8420   -3.8550   -0.7160 C.ar    1  LGD1        0.0401
     33  C33       -0.2710   -5.4790   -3.7750 C.3     1  LGD1        0.2292
     34  C34       -5.4460   -1.5930   -1.4810 C.ar    1  LGD1        0.0033
     35  C35       -6.2900   -2.6930   -1.3690 C.ar    1  LGD1        0.0033
     36  C36        4.6880   -0.4610   -1.6420 C.ar    1  LGD1        0.1023
     37  C37        3.7540    1.6380   -0.6350 C.ar    1  LGD1        0.1023
     38  C38        4.7630    0.8970   -1.2550 C.ar    1  LGD1        0.0414
     39  C39       -4.0070   -6.2920   -0.3130 C.3     1  LGD1        0.2526
@<TRIPOS>BOND
     1    33     7    1
     2    33    29    1
     3     5    29    1
     4     5    25    1
     5    10    25   ar
     6    10    26   ar
     7    36    11   ar
     8    36    38   ar
     9    11    28   ar
    10    25    24   ar
    11    38    37   ar
    12    34    31   ar
    13    34    35   ar
    14    28    26    1
    15    28    12   ar
    16    26     9   ar
    17    31    27   ar
    18    37    12   ar
    19    24     4    1
    20    24    23   ar
    21     4    27    1
    22    27    30   ar
    23    35    32   ar
    24    15    13    1
    25     9    23   ar
    26    23     8    1
    27    30    32   ar
    28    30     6    1
    29     6    39    1
    30     8     1    1
    31    18    14   ar
    32    18    21   ar
    33    13    14    1
    34    13    17    1
    35    13    16    1
    36    14    19   ar
    37    21    20   ar
    38    20     1    1
    39    20    22   ar
    40    19    22   ar
    41     1     2    2
    42     1     3    2
@<TRIPOS>MOLECULE
156690
 38 41 0 0 0
SMALL
GASTEIGER

@<TRIPOS>ATOM
      1 S          -5.8751   -5.3900    0.6631 S.O2    1  LIG11       0.0741
      2 O          -8.9728    0.4697    4.1171 O.2     1  LIG11      -0.2756
      3 O          -6.9527   -5.0805    1.5821 O.2     1  LIG11      -0.1499
      4 O          -4.5781   -5.8161    1.1394 O.2     1  LIG11      -0.1499
      5 O          -4.5516   -1.1840    6.3860 O.2     1  LIG11      -0.4436
      6 O          -4.1627   -8.1505   -2.4501 O.2     1  LIG11      -0.3578
      7 N          -7.2971    0.1231    2.5995 N.am    1  LIG11      -0.3002
      8 N          -6.4858   -6.6532   -0.2943 N.pl3   1  LIG11      -0.1965
      9 N          -2.8899   -2.7116    6.3836 N.ar    1  LIG11      -0.2175
     10 N          -4.9675   -7.0964   -2.0732 N.ar    1  LIG11      -0.0614
     11 C          -9.3359   -2.4463    4.5316 C.3     1  LIG11      -0.0295
     12 C          -8.7953   -1.7704    3.2470 C.3     1  LIG11       0.0290
     13 C          -9.5699   -3.9376    4.2082 C.3     1  LIG11      -0.0596
     14 C         -10.6745   -1.8462    4.9889 C.3     1  LIG11      -0.0596
     15 C          -8.3036   -2.3561    5.6685 C.3     1  LIG11      -0.0596
     16 C          -8.3658   -0.3079    3.3793 C.2     1  LIG11       0.2161
     17 C          -6.5594   -0.7237    1.6580 C.3     1  LIG11       0.0400
     18 C          -5.4421   -1.5662    2.2678 C.ar    1  LIG11      -0.0216
     19 C          -4.7331   -2.5133    1.4793 C.ar    1  LIG11      -0.0113
     20 C          -5.0853   -2.7820    0.0638 C.ar    1  LIG11       0.0090
     21 C          -6.8542    1.5073    2.7116 C.3     1  LIG11       0.0035
     22 C          -5.0924   -1.4118    3.6293 C.ar    1  LIG11      -0.0442
     23 C          -5.6874   -3.9750   -0.4065 C.ar    1  LIG11       0.1162
     24 C          -3.6577   -3.1959    2.0735 C.ar    1  LIG11      -0.0529
     25 C          -4.0766   -2.1657    4.2320 C.ar    1  LIG11       0.0372
     26 C          -3.3501   -3.0453    3.4301 C.ar    1  LIG11      -0.0489
     27 C          -4.8672   -1.7531   -0.8770 C.ar    1  LIG11      -0.0521
     28 C          -6.1415   -4.0664   -1.7334 C.ar    1  LIG11      -0.0345
     29 C          -5.2987   -1.8613   -2.2003 C.ar    1  LIG11      -0.0611
     30 C          -3.7831   -2.0608    5.6598 C.ar    1  LIG11       0.2271
     31 C          -5.9518   -3.0108   -2.6225 C.ar    1  LIG11      -0.0599
     32 C          -5.5597   -7.4737   -0.9386 C.ar    1  LIG11       0.1837
     33 C          -5.1657   -8.7811   -0.5527 C.ar    1  LIG11       0.0342
     34 C          -4.2769   -9.1528   -1.5416 C.ar    1  LIG11       0.1390
     35 C          -5.5421   -9.5603    0.6464 C.3     1  LIG11      -0.0330
     36 C          -4.0969   -1.3140    7.6617 C.ar    1  LIG11       0.1125
     37 C          -3.0895   -2.2435    7.6586 C.ar    1  LIG11       0.0663
     38 C          -3.4518  -10.3514   -1.7853 C.3     1  LIG11      -0.0034
@<TRIPOS>BOND
     1     1     3    2
     2     1     4    2
     3     1     8    1
     4     1    23    1
     5     2    16    2
     6     5    30   ar
     7     5    36   ar
     8     6    10   ar
     9     6    34   ar
    10     7    16   am
    11     7    17    1
    12     7    21    1
    13     8    32    1
    14     9    30   ar
    15     9    37   ar
    16    10    32   ar
    17    11    12    1
    18    11    13    1
    19    11    14    1
    20    11    15    1
    21    12    16    1
    22    17    18    1
    23    18    19   ar
    24    18    22   ar
    25    19    20    1
    26    19    24   ar
    27    20    23   ar
    28    20    27   ar
    29    22    25   ar
    30    23    28   ar
    31    24    26   ar
    32    25    26   ar
    33    25    30    1
    34    27    29   ar
    35    28    31   ar
    36    29    31   ar
    37    32    33   ar
    38    33    34   ar
    39    33    35    1
    40    34    38    1
    41    36    37   ar
