@<TRIPOS>MOLECULE
BOSENTAN_50CONFORMERS.pdb
 39 42 0 0 0
SMALL
GASTEIGER

@<TRIPOS>ATOM
      1  S1        -1.4490   -0.0940    2.9560 S.O2    1  LGD1        0.0943
      2  O2        -0.6240    1.1470    2.7880 O.2     1  LGD1       -0.1483
      3  O3        -2.8460   -0.0310    3.4150 O.2     1  LGD1       -0.1483
      4  O4        -2.3840   -2.7850   -0.2570 O.3     1  LGD1       -0.4427
      5  O5        -0.5460   -3.7510   -2.1030 O.3     1  LGD1       -0.4552
      6  O6        -0.6450   -4.8040    0.7750 O.3     1  LGD1       -0.4684
      7  O7        -0.8830   -5.5220   -4.4490 O.3     1  LGD1       -0.2162
      8  N8        -1.7980   -0.6580    1.3530 N.pl3   1  LGD1       -0.0737
      9  N9         0.4100   -0.5470    0.4560 N.ar    1  LGD1       -0.2027
     10  N10        0.9550   -2.1210   -1.3620 N.ar    1  LGD1       -0.1866
     11  N11        2.6830    0.7690    0.1300 N.ar    1  LGD1       -0.2224
     12  N12        3.2310   -0.6310   -1.8090 N.ar    1  LGD1       -0.2224
     13  C13        1.2750   -4.7890    5.8630 C.3     1  LGD1        0.0189
     14  C14        0.5530   -3.7060    5.0390 C.ar    1  LGD1       -0.0227
     15  C15        2.5330   -5.3980    5.1060 C.3     1  LGD1        0.0044
     16  C16        0.4010   -5.9280    6.3500 C.3     1  LGD1        0.0044
     17  C17        1.9010   -4.1580    7.1590 C.3     1  LGD1        0.0044
     18  C18       -0.8360   -3.7170    4.7560 C.ar    1  LGD1       -0.0029
     19  C19        1.3090   -2.5880    4.6180 C.ar    1  LGD1       -0.0029
     20  C20       -0.6790   -1.5150    3.7350 C.ar    1  LGD1        0.1271
     21  C21       -1.4510   -2.6580    4.0750 C.ar    1  LGD1        0.0199
     22  C22        0.6770   -1.5660    3.9610 C.ar    1  LGD1        0.0199
     23  C23       -0.8380   -1.1710    0.5840 C.ar    1  LGD1        0.2125
     24  C24       -1.1500   -2.2740   -0.3100 C.ar    1  LGD1        0.2327
     25  C25       -0.2310   -2.7580   -1.2060 C.ar    1  LGD1        0.2651
     26  C26        1.1800   -0.9970   -0.6040 C.ar    1  LGD1        0.2028
     27  C27       -2.7950   -3.6620    0.7790 C.ar    1  LGD1        0.1793
     28  C28        2.5110   -0.2550   -0.7330 C.ar    1  LGD1        0.1990
     29  C29        0.4960   -4.6320   -2.5040 C.3     1  LGD1        0.2426
     30  C30       -1.8980   -4.5650    1.3390 C.ar    1  LGD1        0.1730
     31  C31       -4.1250   -3.6780    1.1760 C.ar    1  LGD1        0.0406
     32  C32       -2.4090   -5.4000    2.3060 C.ar    1  LGD1        0.0401
     33  C33       -0.1650   -5.8480   -3.1830 C.3     1  LGD1        0.2292
     34  C34       -4.6090   -4.5870    2.0420 C.ar    1  LGD1        0.0033
     35  C35       -3.7710   -5.4980    2.6050 C.ar    1  LGD1        0.0033
     36  C36        3.9140    1.3700    0.0300 C.ar    1  LGD1        0.1023
     37  C37        4.4240    0.0080   -1.9080 C.ar    1  LGD1        0.1023
     38  C38        4.7880    0.9720   -0.9580 C.ar    1  LGD1        0.0414
     39  C39        0.4930   -4.7900    1.6810 C.3     1  LGD1        0.2526
@<TRIPOS>BOND
     1    33     7    1
     2    33    29    1
     3     5    29    1
     4     5    25    1
     5    10    25   ar
     6    10    26   ar
     7    36    11   ar
     8    36    38   ar
     9    11    28   ar
    10    25    24   ar
    11    38    37   ar
    12    34    31   ar
    13    34    35   ar
    14    28    26    1
    15    28    12   ar
    16    26     9   ar
    17    31    27   ar
    18    37    12   ar
    19    24     4    1
    20    24    23   ar
    21     4    27    1
    22    27    30   ar
    23    35    32   ar
    24    15    13    1
    25     9    23   ar
    26    23     8    1
    27    30    32   ar
    28    30     6    1
    29     6    39    1
    30     8     1    1
    31    18    14   ar
    32    18    21   ar
    33    13    14    1
    34    13    17    1
    35    13    16    1
    36    14    19   ar
    37    21    20   ar
    38    20     1    1
    39    20    22   ar
    40    19    22   ar
    41     1     2    2
    42     1     3    2
@<TRIPOS>MOLECULE
*****
 29 31 0 0 0
SMALL
GASTEIGER

@<TRIPOS>ATOM
      1 BR         -5.5813   -6.3242    3.3307 Br      1  LIG11      -0.0503
      2 BR         -1.5303   -2.1633    5.9843 Br      1  LIG11      -0.0472
      3 S          -3.7997   -1.4166   -2.1291 S.O2    1  LIG11       0.1079
      4 O           0.4605   -4.0609    0.9236 O.3     1  LIG11      -0.4724
      5 O          -5.2250   -1.4672   -1.9418 O.2     1  LIG11      -0.1383
      6 O          -3.2022   -0.5480   -3.1095 O.2     1  LIG11      -0.1383
      7 O           2.5816   -2.2519    1.7061 O.3     1  LIG11      -0.4590
      8 N          -3.3035   -2.9581   -2.5204 N.3     1  LIG11      -0.1906
      9 N          -3.0856   -1.1468   -0.6484 N.pl3   1  LIG11      -0.1891
     10 N          -0.9010   -0.8247   -1.1377 N.ar    1  LIG11      -0.2186
     11 N           0.8144   -2.3329   -0.5726 N.ar    1  LIG11      -0.2008
     12 N           1.5900   -3.3377    3.5422 N.ar    1  LIG11      -0.2022
     13 N           1.0648   -1.0807    2.9542 N.ar    1  LIG11      -0.2022
     14 C          -1.4484   -2.7896    0.2321 C.ar    1  LIG11       0.0848
     15 C          -1.7604   -1.6267   -0.4838 C.ar    1  LIG11       0.1532
     16 C          -2.4400   -3.6333    0.9931 C.ar    1  LIG11      -0.0094
     17 C          -0.0771   -3.0531    0.1466 C.ar    1  LIG11       0.2276
     18 C          -3.6804   -3.1340    1.4478 C.ar    1  LIG11      -0.0527
     19 C          -2.2027   -4.9938    1.2933 C.ar    1  LIG11      -0.0527
     20 C           1.8128   -4.4137    0.6219 C.3     1  LIG11       0.1252
     21 C          -4.6229   -3.9295    2.1204 C.ar    1  LIG11      -0.0472
     22 C          -3.1164   -5.7873    2.0066 C.ar    1  LIG11      -0.0472
     23 C           0.3622   -1.2284   -1.1528 C.ar    1  LIG11       0.1219
     24 C           2.9255   -3.5672    1.2814 C.3     1  LIG11       0.1267
     25 C          -4.3307   -5.2531    2.4066 C.ar    1  LIG11       0.0179
     26 C           1.7446   -2.2277    2.7970 C.ar    1  LIG11       0.3180
     27 C           0.6188   -3.2875    4.4766 C.ar    1  LIG11       0.0483
     28 C           0.1188   -1.0840    3.9160 C.ar    1  LIG11       0.0483
     29 C          -0.1611   -2.1780    4.7010 C.ar    1  LIG11       0.0543
@<TRIPOS>BOND
     1     1    25    1
     2     2    29    1
     3     3     9    1
     4     3     8    1
     5     3     6    2
     6     3     5    2
     7     4    17    1
     8     4    20    1
     9     7    24    1
    10     7    26    1
    11     9    15    1
    12    10    15   ar
    13    10    23   ar
    14    11    17   ar
    15    11    23   ar
    16    12    26   ar
    17    12    27   ar
    18    13    26   ar
    19    13    28   ar
    20    14    15   ar
    21    14    17   ar
    22    16    18   ar
    23    16    19   ar
    24    16    14    1
    25    18    21   ar
    26    19    22   ar
    27    20    24    1
    28    21    25   ar
    29    22    25   ar
    30    27    29   ar
    31    28    29   ar
