@<TRIPOS>MOLECULE
BOSENTAN_50CONFORMERS.pdb
 39 42 0 0 0
SMALL
GASTEIGER

@<TRIPOS>ATOM
      1  S1        -1.4970    0.4400    2.6580 S.O2    1  LGD1        0.0943
      2  O2        -0.8100   -0.4410    3.6510 O.2     1  LGD1       -0.1483
      3  O3        -0.9200    1.6840    2.0120 O.2     1  LGD1       -0.1483
      4  O4        -2.3710   -2.9870   -0.1220 O.3     1  LGD1       -0.4427
      5  O5        -0.5470   -3.8010   -2.0600 O.3     1  LGD1       -0.4552
      6  O6        -0.7430   -4.8190    1.2510 O.3     1  LGD1       -0.4684
      7  O7        -1.1510   -5.5230   -4.1990 O.3     1  LGD1       -0.2162
      8  N8        -1.7760   -0.7060    1.3760 N.pl3   1  LGD1       -0.0737
      9  N9         0.4170   -0.5780    0.4460 N.ar    1  LGD1       -0.2027
     10  N10        0.9570   -2.0600   -1.3620 N.ar    1  LGD1       -0.1866
     11  N11        2.3610    0.5000   -1.8300 N.ar    1  LGD1       -0.2224
     12  N12        3.4760   -0.6410    0.0820 N.ar    1  LGD1       -0.2224
     13  C13       -7.1790    1.1550    4.8090 C.3     1  LGD1        0.0189
     14  C14       -5.7770    0.9400    4.2660 C.ar    1  LGD1       -0.0227
     15  C15       -8.0860    2.1090    4.0520 C.3     1  LGD1        0.0044
     16  C16       -7.0320    1.7110    6.2150 C.3     1  LGD1        0.0044
     17  C17       -7.9580   -0.2170    4.9340 C.3     1  LGD1        0.0044
     18  C18       -5.0880    2.0730    3.7570 C.ar    1  LGD1       -0.0029
     19  C19       -5.1990   -0.3450    4.2590 C.ar    1  LGD1       -0.0029
     20  C20       -3.1420    0.6730    3.3020 C.ar    1  LGD1        0.1271
     21  C21       -3.7110    1.9450    3.3880 C.ar    1  LGD1        0.0199
     22  C22       -3.8680   -0.4280    3.7620 C.ar    1  LGD1        0.0199
     23  C23       -0.8220   -1.1540    0.4830 C.ar    1  LGD1        0.2125
     24  C24       -1.1840   -2.2400   -0.3020 C.ar    1  LGD1        0.2327
     25  C25       -0.2520   -2.7270   -1.2210 C.ar    1  LGD1        0.2651
     26  C26        1.1890   -1.0100   -0.5520 C.ar    1  LGD1        0.2028
     27  C27       -2.7840   -3.6490    0.9860 C.ar    1  LGD1        0.1793
     28  C28        2.4860   -0.3510   -0.7800 C.ar    1  LGD1        0.1990
     29  C29        0.3250   -4.0080   -3.2670 C.3     1  LGD1        0.2426
     30  C30       -2.0040   -4.5850    1.6330 C.ar    1  LGD1        0.1730
     31  C31       -4.0360   -3.3250    1.4550 C.ar    1  LGD1        0.0406
     32  C32       -2.5190   -5.2950    2.7260 C.ar    1  LGD1        0.0401
     33  C33       -0.6280   -4.2550   -4.4030 C.3     1  LGD1        0.2292
     34  C34       -4.5900   -4.1080    2.4960 C.ar    1  LGD1        0.0033
     35  C35       -3.8510   -5.0820    3.1320 C.ar    1  LGD1        0.0033
     36  C36        3.4930    1.1150   -2.1940 C.ar    1  LGD1        0.1023
     37  C37        4.6690   -0.0760   -0.3150 C.ar    1  LGD1        0.1023
     38  C38        4.6380    0.7360   -1.4650 C.ar    1  LGD1        0.0414
     39  C39       -0.7280   -5.9650    0.4290 C.3     1  LGD1        0.2526
@<TRIPOS>BOND
     1    33     7    1
     2    33    29    1
     3     5    29    1
     4     5    25    1
     5    10    25   ar
     6    10    26   ar
     7    36    11   ar
     8    36    38   ar
     9    11    28   ar
    10    25    24   ar
    11    38    37   ar
    12    34    31   ar
    13    34    35   ar
    14    28    26    1
    15    28    12   ar
    16    26     9   ar
    17    31    27   ar
    18    37    12   ar
    19    24     4    1
    20    24    23   ar
    21     4    27    1
    22    27    30   ar
    23    35    32   ar
    24    15    13    1
    25     9    23   ar
    26    23     8    1
    27    30    32   ar
    28    30     6    1
    29     6    39    1
    30     8     1    1
    31    18    14   ar
    32    18    21   ar
    33    13    14    1
    34    13    17    1
    35    13    16    1
    36    14    19   ar
    37    21    20   ar
    38    20     1    1
    39    20    22   ar
    40    19    22   ar
    41     1     2    2
    42     1     3    2
@<TRIPOS>MOLECULE
*****
 39 42 0 0 0
SMALL
GASTEIGER

@<TRIPOS>ATOM
      1 C           4.4328   -8.1747    1.6652 C.ar    1  LIG11       0.0483
      2 C           5.1850   -7.3293    2.4481 C.ar    1  LIG11       0.0543
      3 C           4.5687   -6.1561    2.8167 C.ar    1  LIG11       0.0483
      4 N           3.3107   -5.8285    2.4507 N.ar    1  LIG11      -0.2022
      5 N           3.1717   -7.8994    1.2666 N.ar    1  LIG11      -0.2022
      6 C          -4.4071   -4.6096    2.9354 C.ar    1  LIG11      -0.0504
      7 C          -4.7896   -3.6025    2.0478 C.ar    1  LIG11      -0.0583
      8 C          -3.8416   -2.9837    1.2236 C.ar    1  LIG11      -0.0535
      9 C          -2.4789   -3.3347    1.2676 C.ar    1  LIG11      -0.0094
     10 C          -2.1160   -4.3511    2.1682 C.ar    1  LIG11      -0.0535
     11 C          -3.0648   -4.9911    2.9766 C.ar    1  LIG11      -0.0583
     12 C          -5.1589    1.8740    3.5272 C.ar    1  LIG11      -0.0561
     13 C          -3.9374    1.6345    2.8922 C.ar    1  LIG11      -0.0348
     14 C          -3.2488    0.4504    3.1496 C.ar    1  LIG11       0.1086
     15 C          -3.7555   -0.4765    4.0559 C.ar    1  LIG11      -0.0348
     16 C          -4.9732   -0.2215    4.6973 C.ar    1  LIG11      -0.0561
     17 C          -7.0708    1.2363    5.1161 C.3     1  LIG11       0.0132
     18 C          -5.7022    0.9589    4.4528 C.ar    1  LIG11      -0.0394
     19 C          -8.1733    0.9539    4.0726 C.3     1  LIG11      -0.0537
     20 C          -7.1706    2.7181    5.5890 C.3     1  LIG11       0.0533
     21 C          -7.3466    0.3247    6.3371 C.3     1  LIG11      -0.0537
     22 O          -8.4081    3.0109    6.2352 O.3     1  LIG11      -0.3942
     23 S          -1.7115    0.1384    2.3160 S.O2    1  LIG11       0.0735
     24 O          -1.0664    1.4226    2.1196 O.2     1  LIG11      -0.1499
     25 O          -1.0430   -0.9493    2.9931 O.2     1  LIG11      -0.1499
     26 N          -2.2943   -0.3535    0.7997 N.pl3   1  LIG11      -0.1988
     27 C          -1.4825   -2.6678    0.3935 C.ar    1  LIG11       0.0847
     28 C          -0.4916   -3.3345   -0.3222 C.ar    1  LIG11       0.2276
     29 N           0.3628   -2.7458   -1.1919 N.ar    1  LIG11      -0.2008
     30 C           0.2525   -1.4246   -1.3275 C.ar    1  LIG11       0.1219
     31 N          -0.6270   -0.6515   -0.6936 N.ar    1  LIG11      -0.2186
     32 C          -1.4490   -1.2974    0.1519 C.ar    1  LIG11       0.1524
     33 C          -5.4321   -5.3016    3.7828 C.3     1  LIG11      -0.0397
     34 O          -0.3957   -4.7068   -0.1846 O.3     1  LIG11      -0.4724
     35 C           0.8423   -5.2522   -0.6590 C.3     1  LIG11       0.1252
     36 C           1.0621   -6.6151   -0.0042 C.3     1  LIG11       0.1267
     37 O           1.3670   -6.4201    1.3821 O.3     1  LIG11      -0.4590
     38 C           2.6737   -6.7203    1.6777 C.ar    1  LIG11       0.3180
     39 BR          6.9338   -7.7532    2.9816 Br      1  LIG11      -0.0472
@<TRIPOS>BOND
     1     1     2   ar
     2     2     3   ar
     3     2    39    1
     4     3     4   ar
     5     4    38   ar
     6     5     1   ar
     7     6     7   ar
     8     6    33    1
     9     7     8   ar
    10     8     9   ar
    11     9    10   ar
    12    10    11   ar
    13    11     6   ar
    14    12    13   ar
    15    13    14   ar
    16    14    15   ar
    17    15    16   ar
    18    16    18   ar
    19    17    18    1
    20    17    21    1
    21    17    20    1
    22    17    19    1
    23    18    12   ar
    24    20    22    1
    25    23    26    1
    26    23    25    2
    27    23    24    2
    28    23    14    1
    29    26    32    1
    30    27    28   ar
    31    27     9    1
    32    28    29   ar
    33    29    30   ar
    34    30    31   ar
    35    31    32   ar
    36    32    27   ar
    37    34    35    1
    38    34    28    1
    39    35    36    1
    40    36    37    1
    41    37    38    1
    42    38     5   ar
