@<TRIPOS>MOLECULE
BOSENTAN_50CONFORMERS.pdb
 39 42 0 0 0
SMALL
GASTEIGER

@<TRIPOS>ATOM
      1  S1        -1.2370    0.1620    2.8570 S.O2    1  LGD1        0.0943
      2  O2        -0.4130    1.3820    2.4810 O.2     1  LGD1       -0.1483
      3  O3        -2.4530    0.3900    3.6750 O.2     1  LGD1       -0.1483
      4  O4        -2.3880   -2.7650   -0.1120 O.3     1  LGD1       -0.4427
      5  O5        -0.4890   -3.7900   -2.0520 O.3     1  LGD1       -0.4552
      6  O6        -1.1040   -3.8950    2.1700 O.3     1  LGD1       -0.4684
      7  O7        -0.7000   -5.4660   -4.4110 O.3     1  LGD1       -0.2162
      8  N8        -1.7620   -0.7360    1.5000 N.pl3   1  LGD1       -0.0737
      9  N9         0.3470   -0.5510    0.3410 N.ar    1  LGD1       -0.2027
     10  N10        0.9890   -2.1210   -1.3840 N.ar    1  LGD1       -0.1866
     11  N11        3.2780   -0.3800    0.5340 N.ar    1  LGD1       -0.2224
     12  N12        2.7470    0.2870   -1.8070 N.ar    1  LGD1       -0.2224
     13  C13        2.1080   -3.6810    6.4250 C.3     1  LGD1        0.0189
     14  C14        1.3330   -2.5870    5.6550 C.ar    1  LGD1       -0.0227
     15  C15        3.5950   -3.5340    6.3770 C.3     1  LGD1        0.0044
     16  C16        1.7960   -4.9780    5.7160 C.3     1  LGD1        0.0044
     17  C17        1.7710   -3.9110    7.8870 C.3     1  LGD1        0.0044
     18  C18        1.9210   -1.6830    4.7520 C.ar    1  LGD1       -0.0029
     19  C19       -0.0800   -2.6910    5.6780 C.ar    1  LGD1       -0.0029
     20  C20       -0.2550   -0.9230    3.9280 C.ar    1  LGD1        0.1271
     21  C21        1.1720   -0.8700    3.9210 C.ar    1  LGD1        0.0199
     22  C22       -0.8600   -1.8310    4.8160 C.ar    1  LGD1        0.0199
     23  C23       -0.8840   -1.1100    0.4780 C.ar    1  LGD1        0.2125
     24  C24       -1.1770   -2.1770   -0.3220 C.ar    1  LGD1        0.2327
     25  C25       -0.2380   -2.6790   -1.2270 C.ar    1  LGD1        0.2651
     26  C26        1.1970   -1.1130   -0.5260 C.ar    1  LGD1        0.2028
     27  C27       -2.5230   -4.0940    0.2060 C.ar    1  LGD1        0.1793
     28  C28        2.5370   -0.3470   -0.5690 C.ar    1  LGD1        0.1990
     29  C29       -1.3770   -3.5150   -3.1800 C.3     1  LGD1        0.2426
     30  C30       -1.8710   -4.6400    1.2460 C.ar    1  LGD1        0.1730
     31  C31       -3.4000   -4.9600   -0.5370 C.ar    1  LGD1        0.0406
     32  C32       -2.0650   -5.9920    1.6420 C.ar    1  LGD1        0.0401
     33  C33       -1.8600   -4.8150   -3.8350 C.3     1  LGD1        0.2292
     34  C34       -3.5370   -6.3420   -0.2630 C.ar    1  LGD1        0.0033
     35  C35       -2.8310   -6.8840    0.8430 C.ar    1  LGD1        0.0033
     36  C36        4.3580    0.4000    0.4620 C.ar    1  LGD1        0.1023
     37  C37        3.8670    1.0790   -1.8320 C.ar    1  LGD1        0.1023
     38  C38        4.6930    1.1800   -0.6750 C.ar    1  LGD1        0.0414
     39  C39        0.3750   -4.0230    2.0230 C.3     1  LGD1        0.2526
@<TRIPOS>BOND
     1    33     7    1
     2    33    29    1
     3     5    29    1
     4     5    25    1
     5    10    25   ar
     6    10    26   ar
     7    36    11   ar
     8    36    38   ar
     9    11    28   ar
    10    25    24   ar
    11    38    37   ar
    12    34    31   ar
    13    34    35   ar
    14    28    26    1
    15    28    12   ar
    16    26     9   ar
    17    31    27   ar
    18    37    12   ar
    19    24     4    1
    20    24    23   ar
    21     4    27    1
    22    27    30   ar
    23    35    32   ar
    24    15    13    1
    25     9    23   ar
    26    23     8    1
    27    30    32   ar
    28    30     6    1
    29     6    39    1
    30     8     1    1
    31    18    14   ar
    32    18    21   ar
    33    13    14    1
    34    13    17    1
    35    13    16    1
    36    14    19   ar
    37    21    20   ar
    38    20     1    1
    39    20    22   ar
    40    19    22   ar
    41     1     2    2
    42     1     3    2
@<TRIPOS>MOLECULE
178103
 37 41 0 0 0
SMALL
GASTEIGER

@<TRIPOS>ATOM
      1 O           2.4582   -5.3735    1.4234 O.co2   1  LIG11      -0.5495
      2 O           1.6424   -5.6954    3.5205 O.co2   1  LIG11      -0.5495
      3 O          -1.4354   -0.6883   -2.4267 O.3     1  LIG11      -0.4920
      4 O          -0.3167   -7.2991    0.9381 O.3     1  LIG11      -0.4893
      5 O           2.5005   -0.0120    5.9257 O.3     1  LIG11      -0.4526
      6 O           0.4464   -0.2676    7.1678 O.3     1  LIG11      -0.4526
      7 O          -5.0454   -7.4772    0.3914 O.3     1  LIG11      -0.4950
      8 O           1.0415  -10.1442    2.8012 O.3     1  LIG11      -0.3917
      9 C           0.4092   -4.3339    2.0487 C.3     1  LIG11       0.0203
     10 C          -0.1347   -4.5105    0.6104 C.3     1  LIG11       0.0218
     11 C           0.9688   -2.8942    2.1912 C.3     1  LIG11       0.0184
     12 C          -0.2070   -3.0770    0.1126 C.ar    1  LIG11      -0.0320
     13 C           0.3152   -2.1729    1.0362 C.ar    1  LIG11      -0.0353
     14 C          -1.4792   -5.2646    0.5980 C.ar    1  LIG11       0.0025
     15 C           0.7553   -2.2169    3.5400 C.ar    1  LIG11      -0.0356
     16 C           1.6134   -5.2222    2.3467 C.2     1  LIG11       0.0466
     17 C          -0.7238   -2.6337   -1.1039 C.ar    1  LIG11      -0.0159
     18 C           0.2855   -0.8079    0.7793 C.ar    1  LIG11      -0.0542
     19 C          -1.5142   -6.6644    0.7424 C.ar    1  LIG11       0.1278
     20 C          -0.8302   -1.2614   -1.3379 C.ar    1  LIG11       0.1208
     21 C           1.7950   -1.4265    4.0694 C.ar    1  LIG11      -0.0124
     22 C          -0.3101   -0.3561   -0.4020 C.ar    1  LIG11      -0.0196
     23 C          -0.4524   -2.3313    4.2676 C.ar    1  LIG11      -0.0543
     24 C          -2.7123   -4.5961    0.4608 C.ar    1  LIG11      -0.0510
     25 C           1.6016   -0.8089    5.2865 C.ar    1  LIG11       0.1665
     26 C          -0.6155   -1.7045    5.5093 C.ar    1  LIG11      -0.0159
     27 C          -2.7319   -7.3558    0.6518 C.ar    1  LIG11       0.0221
     28 C          -3.9237   -5.2910    0.3785 C.ar    1  LIG11      -0.0194
     29 C           0.4304   -0.9499    5.9904 C.ar    1  LIG11       0.1662
     30 C          -3.9372   -6.6773    0.4673 C.ar    1  LIG11       0.1236
     31 C          -2.2547   -1.5557   -3.2131 C.3     1  LIG11       0.0893
     32 C           1.7752    0.2915    7.1322 C.3     1  LIG11       0.2332
     33 C          -0.3659   -8.5160    1.6857 C.3     1  LIG11       0.1126
     34 C          -3.2189   -0.6972   -4.0256 C.3     1  LIG11      -0.0215
     35 C           1.0051   -8.8111    2.2813 C.3     1  LIG11       0.0783
     36 C          -6.3032   -6.8185    0.3309 C.3     1  LIG11       0.0788
     37 C          -4.0973   -1.5477   -4.9266 C.3     1  LIG11      -0.0622
@<TRIPOS>BOND
     1     1    16   ar
     2     2    16   ar
     3     3    20    1
     4     3    31    1
     5     4    19    1
     6     4    33    1
     7     5    25    1
     8     5    32    1
     9     6    29    1
    10     6    32    1
    11     7    30    1
    12     7    36    1
    13     8    35    1
    14     9    10    1
    15     9    11    1
    16     9    16    1
    17    10    12    1
    18    10    14    1
    19    11    13    1
    20    11    15    1
    21    12    13   ar
    22    12    17   ar
    23    13    18   ar
    24    14    19   ar
    25    14    24   ar
    26    15    21   ar
    27    15    23   ar
    28    17    20   ar
    29    18    22   ar
    30    19    27   ar
    31    20    22   ar
    32    21    25   ar
    33    23    26   ar
    34    24    28   ar
    35    25    29   ar
    36    26    29   ar
    37    27    30   ar
    38    28    30   ar
    39    31    34    1
    40    33    35    1
    41    34    37    1
