@<TRIPOS>MOLECULE
BOSENTAN_50CONFORMERS.pdb
 39 42 0 0 0
SMALL
GASTEIGER

@<TRIPOS>ATOM
      1  S1        -2.8330    0.4630    1.3060 S.O2    1  LGD1        0.0943
      2  O2        -2.8970    0.6600   -0.1560 O.2     1  LGD1       -0.1483
      3  O3        -4.0250    0.0070    2.1230 O.2     1  LGD1       -0.1483
      4  O4        -2.4940   -2.8430   -0.3110 O.3     1  LGD1       -0.4427
      5  O5        -0.4750   -3.7460   -2.0890 O.3     1  LGD1       -0.4552
      6  O6        -5.0250   -3.8970   -1.0950 O.3     1  LGD1       -0.4684
      7  O7         0.0950   -4.8430   -4.6130 O.3     1  LGD1       -0.2162
      8  N8        -1.7380   -0.7420    1.5350 N.pl3   1  LGD1       -0.0737
      9  N9         0.3450   -0.4420    0.3460 N.ar    1  LGD1       -0.2027
     10  N10        0.9770   -2.2050   -1.3410 N.ar    1  LGD1       -0.1866
     11  N11        2.9920   -0.1140   -1.9100 N.ar    1  LGD1       -0.2224
     12  N12        3.2460   -0.4140    0.5070 N.ar    1  LGD1       -0.2224
     13  C13       -0.0050    5.2100    3.8830 C.3     1  LGD1        0.0189
     14  C14       -0.8520    4.0380    3.3140 C.ar    1  LGD1       -0.0227
     15  C15       -0.9230    6.4780    4.0310 C.3     1  LGD1        0.0044
     16  C16        1.2280    5.5730    2.9890 C.3     1  LGD1        0.0044
     17  C17        0.5030    4.9780    5.2980 C.3     1  LGD1        0.0044
     18  C18       -1.1500    4.0810    1.9220 C.ar    1  LGD1       -0.0029
     19  C19       -1.1800    2.8960    3.9870 C.ar    1  LGD1       -0.0029
     20  C20       -2.1320    1.8950    2.0580 C.ar    1  LGD1        0.1271
     21  C21       -1.7290    2.9910    1.3080 C.ar    1  LGD1        0.0199
     22  C22       -1.8610    1.8490    3.4170 C.ar    1  LGD1        0.0199
     23  C23       -0.9000   -1.0900    0.4490 C.ar    1  LGD1        0.2125
     24  C24       -1.1740   -2.2400   -0.3150 C.ar    1  LGD1        0.2327
     25  C25       -0.2500   -2.6920   -1.2520 C.ar    1  LGD1        0.2651
     26  C26        1.1970   -1.1200   -0.5250 C.ar    1  LGD1        0.2028
     27  C27       -2.8120   -4.2490   -0.1050 C.ar    1  LGD1        0.1793
     28  C28        2.5730   -0.5030   -0.6670 C.ar    1  LGD1        0.1990
     29  C29       -1.2610   -3.4600   -3.2650 C.3     1  LGD1        0.2426
     30  C30       -4.0870   -4.7330   -0.5230 C.ar    1  LGD1        0.1730
     31  C31       -1.9500   -5.1370    0.5370 C.ar    1  LGD1        0.0406
     32  C32       -4.4680   -6.0340   -0.3980 C.ar    1  LGD1        0.0401
     33  C33       -1.1930   -4.6490   -4.1410 C.3     1  LGD1        0.2292
     34  C34       -2.3370   -6.4640    0.6780 C.ar    1  LGD1        0.0033
     35  C35       -3.5800   -6.9030    0.1710 C.ar    1  LGD1        0.0033
     36  C36        4.1530    0.5470   -1.9870 C.ar    1  LGD1        0.1023
     37  C37        4.4350    0.1730    0.4150 C.ar    1  LGD1        0.1023
     38  C38        4.9150    0.5790   -0.8490 C.ar    1  LGD1        0.0414
     39  C39       -5.5650   -2.9760   -0.0860 C.3     1  LGD1        0.2526
@<TRIPOS>BOND
     1    33     7    1
     2    33    29    1
     3     5    29    1
     4     5    25    1
     5    10    25   ar
     6    10    26   ar
     7    36    11   ar
     8    36    38   ar
     9    11    28   ar
    10    25    24   ar
    11    38    37   ar
    12    34    31   ar
    13    34    35   ar
    14    28    26    1
    15    28    12   ar
    16    26     9   ar
    17    31    27   ar
    18    37    12   ar
    19    24     4    1
    20    24    23   ar
    21     4    27    1
    22    27    30   ar
    23    35    32   ar
    24    15    13    1
    25     9    23   ar
    26    23     8    1
    27    30    32   ar
    28    30     6    1
    29     6    39    1
    30     8     1    1
    31    18    14   ar
    32    18    21   ar
    33    13    14    1
    34    13    17    1
    35    13    16    1
    36    14    19   ar
    37    21    20   ar
    38    20     1    1
    39    20    22   ar
    40    19    22   ar
    41     1     2    2
    42     1     3    2
@<TRIPOS>MOLECULE
9939443
 43 47 0 0 0
SMALL
GASTEIGER

@<TRIPOS>ATOM
      1 S          -2.4745    0.3730    1.1672 S.O2    1  LIG11       0.0908
      2 O          -2.5919   -2.8984    0.2164 O.3     1  LIG11      -0.4435
      3 O          -3.7579    0.0641    1.7743 O.2     1  LIG11      -0.1484
      4 O          -2.3243    0.4931   -0.2673 O.2     1  LIG11      -0.1484
      5 O          -1.1117   -3.7330   -2.0991 O.3     1  LIG11      -0.4715
      6 O          -5.3342   -3.6511   -0.2559 O.3     1  LIG11      -0.4914
      7 O           1.1683   -4.7249   -4.8127 O.3     1  LIG11      -0.3917
      8 N          -1.4586   -0.8764    1.7437 N.pl3   1  LIG11      -0.1950
      9 N          -2.5578    2.9748    1.5609 N.ar    1  LIG11      -0.2351
     10 N           0.4864   -0.9956    0.5032 N.ar    1  LIG11      -0.2073
     11 N           0.6873   -2.4193   -1.3928 N.ar    1  LIG11      -0.1899
     12 N           5.2125   -0.1967   -1.1376 N.ar    1  LIG11      -0.2552
     13 N           4.0847    2.7871    0.6784 N.ar    1  LIG11      -0.5621
     14 N           6.1577    2.2245   -0.0350 N.ar    1  LIG11      -0.1535
     15 N           5.0157    3.7286    0.8906 N.ar    1  LIG11      -0.3597
     16 N           6.2562    3.4332    0.5000 N.ar    1  LIG11      -0.0878
     17 C          -0.9940    5.5300    3.9211 C.3     1  LIG11      -0.0201
     18 C          -1.2909    4.2281    3.2034 C.ar    1  LIG11      -0.0266
     19 C           0.1212    6.2951    3.2083 C.3     1  LIG11      -0.0586
     20 C          -2.2224    6.4291    4.1077 C.3     1  LIG11      -0.0586
     21 C          -1.8738    1.8647    1.9454 C.ar    1  LIG11       0.1969
     22 C          -0.5906    3.0594    3.5421 C.ar    1  LIG11      -0.0535
     23 C          -2.2398    4.1254    2.1885 C.ar    1  LIG11       0.0332
     24 C          -0.8797    1.8528    2.9068 C.ar    1  LIG11      -0.0160
     25 C          -0.7360   -1.5155    0.6924 C.ar    1  LIG11       0.1882
     26 C          -1.3236   -2.4945   -0.0903 C.ar    1  LIG11       0.2307
     27 C          -0.5718   -2.8546   -1.1855 C.ar    1  LIG11       0.2641
     28 C           1.1678   -1.4972   -0.5382 C.ar    1  LIG11       0.1659
     29 C           2.5506   -1.0403   -0.7483 C.ar    1  LIG11       0.0227
     30 C          -2.9511   -4.2267    0.1533 C.ar    1  LIG11       0.1702
     31 C           3.0143    0.1751   -0.2213 C.ar    1  LIG11      -0.0252
     32 C           3.4631   -1.8094   -1.4850 C.ar    1  LIG11      -0.0328
     33 C          -0.5026   -3.7039   -3.3918 C.3     1  LIG11       0.1143
     34 C          -4.3016   -4.5364   -0.0850 C.ar    1  LIG11       0.1621
     35 C           4.3347    0.5660   -0.4382 C.ar    1  LIG11       0.0708
     36 C          -2.0383   -5.2732    0.3583 C.ar    1  LIG11      -0.0157
     37 C           4.7602   -1.3574   -1.6461 C.ar    1  LIG11       0.0289
     38 C           0.6119   -4.7394   -3.5030 C.3     1  LIG11       0.0783
     39 C          -4.6899   -5.8751   -0.2244 C.ar    1  LIG11      -0.0163
     40 C          -2.4424   -6.6042    0.2306 C.ar    1  LIG11      -0.0581
     41 C          -3.7660   -6.9058   -0.0739 C.ar    1  LIG11      -0.0581
     42 C           4.8364    1.8444    0.0708 C.ar    1  LIG11       0.0207
     43 C          -5.2909   -2.4645    0.5273 C.3     1  LIG11       0.0790
@<TRIPOS>BOND
     1     1    21    1
     2     1     8    1
     3     1     4    2
     4     1     3    2
     5     2    26    1
     6     2    30    1
     7     5    27    1
     8     5    33    1
     9     6    34    1
    10     6    43    1
    11     7    38    1
    12     8    25    1
    13     9    23   ar
    14     9    21   ar
    15    10    25   ar
    16    10    28   ar
    17    11    27   ar
    18    11    28   ar
    19    12    37   ar
    20    12    35   ar
    21    13    15   ar
    22    13    42   ar
    23    14    42   ar
    24    14    16   ar
    25    15    16   ar
    26    17    18    1
    27    17    20    1
    28    17    19    1
    29    18    23   ar
    30    18    22   ar
    31    21    24   ar
    32    22    24   ar
    33    25    26   ar
    34    26    27   ar
    35    28    29    1
    36    29    31   ar
    37    29    32   ar
    38    30    36   ar
    39    30    34   ar
    40    31    35   ar
    41    32    37   ar
    42    33    38    1
    43    34    39   ar
    44    35    42    1
    45    36    40   ar
    46    39    41   ar
    47    40    41   ar
