@<TRIPOS>MOLECULE
BOSENTAN_50CONFORMERS.pdb
 39 42 0 0 0
SMALL
GASTEIGER

@<TRIPOS>ATOM
      1  S1        -1.8260    0.8680    2.1150 S.O2    1  LGD1        0.0943
      2  O2        -3.2310    1.0510    2.6420 O.2     1  LGD1       -0.1483
      3  O3        -0.7360    0.8420    3.1650 O.2     1  LGD1       -0.1483
      4  O4        -2.4030   -2.7480   -0.1730 O.3     1  LGD1       -0.4427
      5  O5        -0.5250   -3.7950   -2.0950 O.3     1  LGD1       -0.4552
      6  O6        -2.8550   -0.2480   -1.8440 O.3     1  LGD1       -0.4684
      7  O7        -1.9730   -4.8030   -4.4000 O.3     1  LGD1       -0.2162
      8  N8        -1.8030   -0.6630    1.3420 N.pl3   1  LGD1       -0.0737
      9  N9         0.3910   -0.5170    0.4490 N.ar    1  LGD1       -0.2027
     10  N10        0.9160   -2.0940   -1.3960 N.ar    1  LGD1       -0.1866
     11  N11        2.6710    0.8150   -0.9050 N.ar    1  LGD1       -0.2224
     12  N12        3.5280   -1.4300   -0.5030 N.ar    1  LGD1       -0.2224
     13  C13       -0.5230    4.4800   -2.6490 C.3     1  LGD1        0.0189
     14  C14       -0.8270    3.6580   -1.3880 C.ar    1  LGD1       -0.0227
     15  C15       -1.6210    5.5800   -2.8100 C.3     1  LGD1        0.0044
     16  C16       -0.4680    3.6970   -4.0130 C.3     1  LGD1        0.0044
     17  C17        0.8300    5.1600   -2.6730 C.3     1  LGD1        0.0044
     18  C18        0.1540    3.3630   -0.3720 C.ar    1  LGD1       -0.0029
     19  C19       -2.1270    3.0610   -1.2730 C.ar    1  LGD1       -0.0029
     20  C20       -1.4510    1.9720    0.8310 C.ar    1  LGD1        0.1271
     21  C21       -0.1290    2.4730    0.7040 C.ar    1  LGD1        0.0199
     22  C22       -2.4280    2.2780   -0.1370 C.ar    1  LGD1        0.0199
     23  C23       -0.8140   -1.1840    0.5480 C.ar    1  LGD1        0.2125
     24  C24       -1.1190   -2.2490   -0.2350 C.ar    1  LGD1        0.2327
     25  C25       -0.2610   -2.7270   -1.2750 C.ar    1  LGD1        0.2651
     26  C26        1.1980   -1.0480   -0.5300 C.ar    1  LGD1        0.2028
     27  C27       -3.3080   -2.6450   -1.2120 C.ar    1  LGD1        0.1793
     28  C28        2.5710   -0.4720   -0.5450 C.ar    1  LGD1        0.1990
     29  C29       -0.0310   -3.6890   -3.4570 C.3     1  LGD1        0.2426
     30  C30       -3.5470   -1.4580   -2.0260 C.ar    1  LGD1        0.1730
     31  C31       -4.0820   -3.7780   -1.4710 C.ar    1  LGD1        0.0406
     32  C32       -4.5460   -1.5120   -2.9680 C.ar    1  LGD1        0.0401
     33  C33       -0.5230   -4.8470   -4.3420 C.3     1  LGD1        0.2292
     34  C34       -5.0600   -3.7560   -2.4690 C.ar    1  LGD1        0.0033
     35  C35       -5.2410   -2.6820   -3.2890 C.ar    1  LGD1        0.0033
     36  C36        3.9260    1.3540   -0.9780 C.ar    1  LGD1        0.1023
     37  C37        4.8260   -0.9910   -0.5450 C.ar    1  LGD1        0.1023
     38  C38        4.9700    0.4280   -0.7720 C.ar    1  LGD1        0.0414
     39  C39       -1.9900   -0.1040   -3.0090 C.3     1  LGD1        0.2526
@<TRIPOS>BOND
     1    33     7    1
     2    33    29    1
     3     5    29    1
     4     5    25    1
     5    10    25   ar
     6    10    26   ar
     7    36    11   ar
     8    36    38   ar
     9    11    28   ar
    10    25    24   ar
    11    38    37   ar
    12    34    31   ar
    13    34    35   ar
    14    28    26    1
    15    28    12   ar
    16    26     9   ar
    17    31    27   ar
    18    37    12   ar
    19    24     4    1
    20    24    23   ar
    21     4    27    1
    22    27    30   ar
    23    35    32   ar
    24    15    13    1
    25     9    23   ar
    26    23     8    1
    27    30    32   ar
    28    30     6    1
    29     6    39    1
    30     8     1    1
    31    18    14   ar
    32    18    21   ar
    33    13    14    1
    34    13    17    1
    35    13    16    1
    36    14    19   ar
    37    21    20   ar
    38    20     1    1
    39    20    22   ar
    40    19    22   ar
    41     1     2    2
    42     1     3    2
@<TRIPOS>MOLECULE
9912992
 34 37 0 0 0
SMALL
GASTEIGER

@<TRIPOS>ATOM
      1 S          -2.4326    0.5637    1.5107 S.O2    1  LIG11       0.0908
      2 O          -2.5258   -2.6017   -0.0099 O.3     1  LIG11      -0.4435
      3 O          -0.8715   -3.4494   -2.1935 O.3     1  LIG11      -0.4771
      4 O          -2.5365    1.2251    2.7987 O.2     1  LIG11      -0.1484
      5 O          -3.6176    0.0775    0.8409 O.2     1  LIG11      -0.1484
      6 O          -3.8460   -4.9176   -0.0714 O.3     1  LIG11      -0.4914
      7 N          -1.3400   -0.7049    1.7553 N.pl3   1  LIG11      -0.1950
      8 N           0.5213   -0.6697    0.4643 N.ar    1  LIG11      -0.2073
      9 N           0.7736   -1.9362   -1.5297 N.ar    1  LIG11      -0.1899
     10 N          -1.6095    1.3376   -0.9111 N.ar    1  LIG11      -0.2351
     11 N           4.9966    0.8392   -1.3648 N.ar    1  LIG11      -0.2632
     12 C          -0.7011   -1.2120    0.5980 C.ar    1  LIG11       0.1882
     13 C          -1.2863   -2.0959   -0.2844 C.ar    1  LIG11       0.2307
     14 C          -1.5805    1.6981    0.4012 C.ar    1  LIG11       0.1969
     15 C          -0.4605   -2.4507   -1.3345 C.ar    1  LIG11       0.2638
     16 C           1.2065   -1.0417   -0.6275 C.ar    1  LIG11       0.1659
     17 C          -0.9564    2.8308    0.8989 C.ar    1  LIG11      -0.0160
     18 C           2.5100   -0.4045   -0.8695 C.ar    1  LIG11       0.0222
     19 C          -3.3923   -2.8195   -1.0617 C.ar    1  LIG11       0.1702
     20 C          -0.2931    3.3173   -1.3715 C.ar    1  LIG11      -0.0322
     21 C          -0.3010    3.6530   -0.0128 C.ar    1  LIG11      -0.0541
     22 C          -0.9712    2.1653   -1.7636 C.ar    1  LIG11       0.0327
     23 C          -4.0927   -4.0344   -1.0914 C.ar    1  LIG11       0.1621
     24 C          -3.6249   -1.8453   -2.0412 C.ar    1  LIG11      -0.0157
     25 C           0.3663    4.1950   -2.3888 C.3     1  LIG11      -0.0383
     26 C           3.4639   -0.9888   -1.7153 C.ar    1  LIG11      -0.0329
     27 C           2.8455    0.8218   -0.2774 C.ar    1  LIG11      -0.0329
     28 C          -4.9510   -4.3007   -2.1627 C.ar    1  LIG11      -0.0163
     29 C          -4.4921   -2.1161   -3.0990 C.ar    1  LIG11      -0.0581
     30 C          -5.1434   -3.3463   -3.1663 C.ar    1  LIG11      -0.0581
     31 C           4.6719   -0.3431   -1.9255 C.ar    1  LIG11       0.0282
     32 C           4.0765    1.3953   -0.5523 C.ar    1  LIG11       0.0282
     33 C          -0.2612   -3.3715   -3.4762 C.3     1  LIG11       0.0805
     34 C          -4.9160   -5.7979    0.2492 C.3     1  LIG11       0.0790
@<TRIPOS>BOND
     1     1     4    2
     2     1     5    2
     3     1     7    1
     4     1    14    1
     5     2    13    1
     6     2    19    1
     7     3    15    1
     8     3    33    1
     9     6    23    1
    10     6    34    1
    11     7    12    1
    12     8    12   ar
    13     8    16   ar
    14     9    15   ar
    15     9    16   ar
    16    10    14   ar
    17    10    22   ar
    18    11    31   ar
    19    11    32   ar
    20    12    13   ar
    21    13    15   ar
    22    14    17   ar
    23    16    18    1
    24    17    21   ar
    25    18    26   ar
    26    18    27   ar
    27    19    23   ar
    28    19    24   ar
    29    20    21   ar
    30    20    22   ar
    31    20    25    1
    32    23    28   ar
    33    24    29   ar
    34    26    31   ar
    35    27    32   ar
    36    28    30   ar
    37    29    30   ar
