@<TRIPOS>MOLECULE
BOSENTAN_50CONFORMERS.pdb
 39 42 0 0 0
SMALL
GASTEIGER

@<TRIPOS>ATOM
      1  S1        -2.4230   -1.4340    2.6960 S.O2    1  LGD1        0.0943
      2  O2        -1.4830   -2.5200    3.0230 O.2     1  LGD1       -0.1483
      3  O3        -2.7960   -0.3780    3.7010 O.2     1  LGD1       -0.1483
      4  O4        -2.4300   -2.9140   -0.0410 O.3     1  LGD1       -0.4427
      5  O5        -0.5180   -3.7750   -2.1260 O.3     1  LGD1       -0.4552
      6  O6        -2.8620   -5.6270    0.2600 O.3     1  LGD1       -0.4684
      7  O7         0.5520   -6.4420   -3.2760 O.3     1  LGD1       -0.2162
      8  N8        -1.7520   -0.5960    1.4170 N.pl3   1  LGD1       -0.0737
      9  N9         0.3370   -0.5330    0.3640 N.ar    1  LGD1       -0.2027
     10  N10        0.9720   -2.1140   -1.3570 N.ar    1  LGD1       -0.1866
     11  N11        3.5910   -1.3680   -0.9490 N.ar    1  LGD1       -0.2224
     12  N12        2.8870    0.5790    0.3830 N.ar    1  LGD1       -0.2224
     13  C13       -7.8160   -3.8990    0.8710 C.3     1  LGD1        0.0189
     14  C14       -6.4490   -3.1960    1.2150 C.ar    1  LGD1       -0.0227
     15  C15       -8.4650   -3.3140   -0.4500 C.3     1  LGD1        0.0044
     16  C16       -8.8390   -3.8220    2.0410 C.3     1  LGD1        0.0044
     17  C17       -7.5170   -5.4190    0.4400 C.3     1  LGD1        0.0044
     18  C18       -5.9970   -1.9760    0.7180 C.ar    1  LGD1       -0.0029
     19  C19       -5.6730   -3.7910    2.2570 C.ar    1  LGD1       -0.0029
     20  C20       -3.9810   -2.0430    2.1430 C.ar    1  LGD1        0.1271
     21  C21       -4.8320   -1.3620    1.2320 C.ar    1  LGD1        0.0199
     22  C22       -4.4050   -3.2890    2.6770 C.ar    1  LGD1        0.0199
     23  C23       -0.8360   -1.2200    0.5460 C.ar    1  LGD1        0.2125
     24  C24       -1.1500   -2.2920   -0.2690 C.ar    1  LGD1        0.2327
     25  C25       -0.2480   -2.7090   -1.2580 C.ar    1  LGD1        0.2651
     26  C26        1.1780   -1.0390   -0.5090 C.ar    1  LGD1        0.2028
     27  C27       -3.2220   -3.5710   -0.9140 C.ar    1  LGD1        0.1793
     28  C28        2.6830   -0.4990   -0.3990 C.ar    1  LGD1        0.1990
     29  C29        0.0020   -4.9080   -1.4450 C.3     1  LGD1        0.2426
     30  C30       -3.4310   -4.9650   -0.8450 C.ar    1  LGD1        0.1730
     31  C31       -3.8210   -2.7820   -1.9370 C.ar    1  LGD1        0.0406
     32  C32       -4.2470   -5.6190   -1.8180 C.ar    1  LGD1        0.0401
     33  C33       -0.4170   -6.1390   -2.2450 C.3     1  LGD1        0.2292
     34  C34       -4.6890   -3.4580   -2.8420 C.ar    1  LGD1        0.0033
     35  C35       -5.0040   -4.8410   -2.7420 C.ar    1  LGD1        0.0033
     36  C36        4.8670   -1.0760   -0.7340 C.ar    1  LGD1        0.1023
     37  C37        4.1850    0.8110    0.6060 C.ar    1  LGD1        0.1023
     38  C38        5.1780   -0.0510    0.1130 C.ar    1  LGD1        0.0414
     39  C39       -3.4410   -6.9060    0.6760 C.3     1  LGD1        0.2526
@<TRIPOS>BOND
     1    33     7    1
     2    33    29    1
     3     5    29    1
     4     5    25    1
     5    10    25   ar
     6    10    26   ar
     7    36    11   ar
     8    36    38   ar
     9    11    28   ar
    10    25    24   ar
    11    38    37   ar
    12    34    31   ar
    13    34    35   ar
    14    28    26    1
    15    28    12   ar
    16    26     9   ar
    17    31    27   ar
    18    37    12   ar
    19    24     4    1
    20    24    23   ar
    21     4    27    1
    22    27    30   ar
    23    35    32   ar
    24    15    13    1
    25     9    23   ar
    26    23     8    1
    27    30    32   ar
    28    30     6    1
    29     6    39    1
    30     8     1    1
    31    18    14   ar
    32    18    21   ar
    33    13    14    1
    34    13    17    1
    35    13    16    1
    36    14    19   ar
    37    21    20   ar
    38    20     1    1
    39    20    22   ar
    40    19    22   ar
    41     1     2    2
    42     1     3    2
@<TRIPOS>MOLECULE
HTS1204-03362316-01
 44 47 0 0 0
SMALL
USER_CHARGES

@<TRIPOS>ATOM
      1 C1         -5.2320   -4.8259    2.4720 C.ar    1  UNK11      -0.0199
      2 N1         -6.8577   -3.8970    1.2525 N.ar    1  UNK11      -0.3494
      3 C2          1.8756   -5.3881    0.8559 C.2     1  UNK11       0.3028
      4 C3         -6.4649   -5.0402    1.8864 C.ar    1  UNK11       0.0086
      5 C4         -3.8161   -7.3657    1.2706 C.2     1  UNK11       0.2342
      6 C5         -4.8829   -3.4632    2.1926 C.ar    1  UNK11       0.0031
      7 C6         -0.9402   -5.7925    2.4858 C.2     1  UNK11       0.2340
      8 C7         -5.8989   -2.9188    1.3978 C.ar    1  UNK11       0.0491
      9 N2          0.6859   -4.7085    0.9582 N.am    1  UNK11      -0.2879
     10 N3          2.3611   -5.4711   -0.4449 N.am    1  UNK11      -0.2856
     11 N4         -2.2612   -5.6076    2.1341 N.am    1  UNK11      -0.3022
     12 N5         -2.8233   -7.6575    0.3605 N.am    1  UNK11      -0.3054
     13 C8         -3.3187   -6.5627    2.4904 C.3     1  UNK11       0.1034
     14 C9         -0.0582   -4.5581    2.2131 C.3     1  UNK11       0.1011
     15 C10        -3.0538   -8.4514   -0.8676 C.3     1  UNK11       0.0680
     16 C11        -4.4591   -5.8577    3.2532 C.3     1  UNK11       0.0013
     17 C12        -2.0136   -9.5978   -1.0259 C.2     1  UNK11       0.0623
     18 C13        -2.7821   -7.6270   -2.1358 C.3     1  UNK11       0.0133
     19 O1          2.4813   -5.8525    1.8162 O.2     1  UNK11      -0.2526
     20 O2         -0.5298   -6.8278    2.9957 O.2     1  UNK11      -0.2738
     21 O3         -4.9654   -7.7935    1.1855 O.2     1  UNK11      -0.2738
     22 N6         -4.7578   -6.3954   -2.9253 N.ar    1  UNK11      -0.2598
     23 O4         -0.9065   -9.3698   -0.4460 O.co2   1  UNK11      -0.5479
     24 C14         0.7905   -4.1739    3.4417 C.3     1  UNK11      -0.0236
     25 C15        -3.5990   -6.3582   -2.2222 C.ar    1  UNK11       0.0434
     26 O5         -2.3715  -10.5890   -1.7195 O.co2   1  UNK11      -0.5479
     27 C16        -8.1048   -3.7480    0.5385 C.3     1  UNK11       0.0119
     28 C17         1.9623   -4.5585   -1.5212 C.3     1  UNK11       0.0161
     29 C18         3.4335   -6.4242   -0.7076 C.3     1  UNK11       0.0161
     30 C19        -5.8411   -1.6066    0.8993 C.ar    1  UNK11      -0.0376
     31 C20        -3.7871   -2.6402    2.5293 C.ar    1  UNK11      -0.0523
     32 C21        -0.0248   -3.6349    4.6440 C.3     1  UNK11      -0.0446
     33 C22        -5.4969   -5.2664   -2.9566 C.ar    1  UNK11       0.0279
     34 C23        -3.1518   -5.1973   -1.5864 C.ar    1  UNK11      -0.0403
     35 C24        -0.7115   -4.7408    5.4527 C.3     1  UNK11      -0.0626
     36 C25         0.8989   -2.8501    5.5809 C.3     1  UNK11      -0.0626
     37 C26         2.9659   -4.4070   -2.6690 C.3     1  UNK11      -0.0371
     38 C27         4.8284   -5.7999   -0.6339 C.3     1  UNK11      -0.0371
     39 C28        -3.7134   -1.3350    2.0304 C.ar    1  UNK11      -0.0611
     40 C29        -4.7254   -0.8298    1.2203 C.ar    1  UNK11      -0.0598
     41 C30        -5.1311   -4.0823   -2.3393 C.ar    1  UNK11      -0.0436
     42 C31        -3.9317   -4.0496   -1.6432 C.ar    1  UNK11      -0.0586
     43 C32         4.3391   -3.8571   -2.2748 C.3     1  UNK11      -0.0516
     44 C33         4.9014   -4.3015   -0.9261 C.3     1  UNK11      -0.0516
@<TRIPOS>BOND
     1     2     4   ar
     2     3     9   am
     3     1     4   ar
     4     5    13    1
     5     1     6   ar
     6     7    11   am
     7     6     8   ar
     8     9    14    1
     9     3    10   am
    10    11    13    1
    11     5    12   am
    12    13    16    1
    13     7    14    1
    14    12    15    1
    15     1    16    1
    16    15    17    1
    17    15    18    1
    18     3    19    2
    19     7    20    2
    20     5    21    2
    21    22    25   ar
    22    17    23   ar
    23    14    24    1
    24    18    25    1
    25    17    26   ar
    26     2    27    1
    27    10    28    1
    28    10    29    1
    29     8    30   ar
    30     6    31   ar
    31    24    32    1
    32    22    33   ar
    33    25    34   ar
    34    32    35    1
    35    32    36    1
    36    28    37    1
    37    29    38    1
    38    31    39   ar
    39    39    40   ar
    40    41    42   ar
    41    34    42   ar
    42    37    43    1
    43    38    44    1
    44     2     8   ar
    45    30    40   ar
    46    33    41   ar
    47    43    44    1
