@<TRIPOS>MOLECULE
BOSENTAN_50CONFORMERS.pdb
 39 42 0 0 0
SMALL
GASTEIGER

@<TRIPOS>ATOM
      1  S1        -2.2100    0.8910    1.6560 S.O2    1  LGD1        0.0943
      2  O2        -3.6490    0.8670    2.0450 O.2     1  LGD1       -0.1483
      3  O3        -1.2600    1.5580    2.5080 O.2     1  LGD1       -0.1483
      4  O4        -2.3850   -2.9130   -0.0870 O.3     1  LGD1       -0.4427
      5  O5        -0.5280   -3.6880   -2.1330 O.3     1  LGD1       -0.4552
      6  O6        -2.6800   -1.2320   -2.4200 O.3     1  LGD1       -0.4684
      7  O7         0.5730   -5.7640   -3.9500 O.3     1  LGD1       -0.2162
      8  N8        -1.7610   -0.7060    1.4300 N.pl3   1  LGD1       -0.0737
      9  N9         0.3420   -0.5020    0.3260 N.ar    1  LGD1       -0.2027
     10  N10        0.9800   -2.1490   -1.2950 N.ar    1  LGD1       -0.1866
     11  N11        2.7090    0.3860   -1.7460 N.ar    1  LGD1       -0.2224
     12  N12        3.3510   -0.5520    0.3280 N.ar    1  LGD1       -0.2224
     13  C13       -1.3880    3.3940   -3.9040 C.3     1  LGD1        0.0189
     14  C14       -1.6690    2.8260   -2.4750 C.ar    1  LGD1       -0.0227
     15  C15       -2.3300    2.9240   -5.0310 C.3     1  LGD1        0.0044
     16  C16        0.0230    3.1680   -4.4080 C.3     1  LGD1        0.0044
     17  C17       -1.6750    4.9520   -3.8190 C.3     1  LGD1        0.0044
     18  C18       -0.6570    2.7740   -1.5080 C.ar    1  LGD1       -0.0029
     19  C19       -2.8800    2.1980   -2.1100 C.ar    1  LGD1       -0.0029
     20  C20       -2.0200    1.6530    0.0630 C.ar    1  LGD1        0.1271
     21  C21       -0.8150    2.2360   -0.2570 C.ar    1  LGD1        0.0199
     22  C22       -3.0480    1.5460   -0.8880 C.ar    1  LGD1        0.0199
     23  C23       -0.8250   -1.1310    0.5010 C.ar    1  LGD1        0.2125
     24  C24       -1.1650   -2.2800   -0.2740 C.ar    1  LGD1        0.2327
     25  C25       -0.2430   -2.7600   -1.1940 C.ar    1  LGD1        0.2651
     26  C26        1.1830   -1.0600   -0.5540 C.ar    1  LGD1        0.2028
     27  C27       -3.1620   -3.2130   -1.1610 C.ar    1  LGD1        0.1793
     28  C28        2.4780   -0.2990   -0.6400 C.ar    1  LGD1        0.1990
     29  C29       -0.3750   -5.1270   -1.7850 C.3     1  LGD1        0.2426
     30  C30       -3.2680   -2.4770   -2.3200 C.ar    1  LGD1        0.1730
     31  C31       -3.9780   -4.3280   -1.0640 C.ar    1  LGD1        0.0406
     32  C32       -4.1070   -2.8440   -3.3820 C.ar    1  LGD1        0.0401
     33  C33       -0.4930   -6.0060   -3.0100 C.3     1  LGD1        0.2292
     34  C34       -4.7580   -4.7850   -2.1190 C.ar    1  LGD1        0.0033
     35  C35       -4.8170   -4.0590   -3.2820 C.ar    1  LGD1        0.0033
     36  C36        3.9930    0.9670   -1.8590 C.ar    1  LGD1        0.1023
     37  C37        4.6300   -0.0210    0.2350 C.ar    1  LGD1        0.1023
     38  C38        4.8980    0.7820   -0.8340 C.ar    1  LGD1        0.0414
     39  C39       -1.8120   -0.9830   -3.6390 C.3     1  LGD1        0.2526
@<TRIPOS>BOND
     1    33     7    1
     2    33    29    1
     3     5    29    1
     4     5    25    1
     5    10    25   ar
     6    10    26   ar
     7    36    11   ar
     8    36    38   ar
     9    11    28   ar
    10    25    24   ar
    11    38    37   ar
    12    34    31   ar
    13    34    35   ar
    14    28    26    1
    15    28    12   ar
    16    26     9   ar
    17    31    27   ar
    18    37    12   ar
    19    24     4    1
    20    24    23   ar
    21     4    27    1
    22    27    30   ar
    23    35    32   ar
    24    15    13    1
    25     9    23   ar
    26    23     8    1
    27    30    32   ar
    28    30     6    1
    29     6    39    1
    30     8     1    1
    31    18    14   ar
    32    18    21   ar
    33    13    14    1
    34    13    17    1
    35    13    16    1
    36    14    19   ar
    37    21    20   ar
    38    20     1    1
    39    20    22   ar
    40    19    22   ar
    41     1     2    2
    42     1     3    2
@<TRIPOS>MOLECULE
9911482
 30 32 0 0 0
SMALL
GASTEIGER

@<TRIPOS>ATOM
      1 S          -4.9480    2.9686   -1.3623 S.O2    1  LIG11       0.0758
      2 S          -1.1138    1.1455   -1.3084 S.2     1  LIG11      -0.0902
      3 O          -4.4174    5.4349   -3.2419 O.2     1  LIG11      -0.3377
      4 O          -5.0222    4.2018   -0.6091 O.2     1  LIG11      -0.1499
      5 O          -5.6360    1.7867   -0.8803 O.2     1  LIG11      -0.1499
      6 O          -4.3399    0.2898   -3.1092 O.2     1  LIG11      -0.2692
      7 O          -3.8998   -1.9613   -5.6106 O.2     1  LIG11      -0.2923
      8 N          -3.1970   -1.0747   -1.6385 N.am    1  LIG11      -0.2802
      9 N          -5.4191    3.2119   -2.9563 N.pl3   1  LIG11      -0.1831
     10 N          -4.8031    6.6913   -3.6676 N.ar    1  LIG11      -0.0810
     11 C          -3.6952   -2.3374   -2.0401 C.ar    1  LIG11       0.0471
     12 C          -3.2757    2.5236   -1.3039 C.ar    1  LIG11       0.1277
     13 C          -4.0585   -3.2595   -1.0287 C.ar    1  LIG11      -0.0283
     14 C          -3.8021   -2.7393   -3.3901 C.ar    1  LIG11       0.0388
     15 C          -2.7960    1.2702   -1.6338 C.ar    1  LIG11       0.1007
     16 C          -4.6699   -4.9213   -2.7217 C.ar    1  LIG11      -0.0494
     17 C          -4.5292   -4.5401   -1.3877 C.ar    1  LIG11      -0.0541
     18 C          -4.3048   -4.0137   -3.7155 C.ar    1  LIG11      -0.0466
     19 C          -3.5130    0.1455   -2.2161 C.2     1  LIG11       0.2568
     20 C          -5.4695    4.5763   -3.3302 C.ar    1  LIG11       0.2399
     21 C          -2.2454    3.3957   -0.8321 C.ar    1  LIG11      -0.0273
     22 C          -6.5718    5.2498   -3.8113 C.ar    1  LIG11       0.0350
     23 C          -4.0342   -2.9615    0.4501 C.3     1  LIG11      -0.0379
     24 C          -3.2626   -1.9889   -4.5582 C.2     1  LIG11       0.1619
     25 C          -6.0985    6.5832   -3.9819 C.ar    1  LIG11       0.0854
     26 C          -1.0212    2.7688   -0.7841 C.ar    1  LIG11      -0.0217
     27 C          -5.1447   -6.2951   -3.0917 C.3     1  LIG11      -0.0397
     28 C          -7.9569    4.7664   -4.0094 C.3     1  LIG11      -0.0330
     29 C          -6.8648    7.7818   -4.3990 C.3     1  LIG11      -0.0188
     30 C          -1.8747   -1.4068   -4.4717 C.3     1  LIG11      -0.0013
@<TRIPOS>BOND
     1     1     4    2
     2     1     5    2
     3     1     9    1
     4     1    12    1
     5     2    15   ar
     6     2    26   ar
     7     3    10   ar
     8     3    20   ar
     9     6    19    2
    10     7    24    2
    11     8    11    1
    12     8    19   am
    13     9    20    1
    14    10    25   ar
    15    11    13   ar
    16    11    14   ar
    17    12    15   ar
    18    12    21   ar
    19    13    17   ar
    20    13    23    1
    21    14    18   ar
    22    14    24    1
    23    15    19    1
    24    16    17   ar
    25    16    18   ar
    26    16    27    1
    27    20    22   ar
    28    21    26   ar
    29    22    25   ar
    30    22    28    1
    31    24    30    1
    32    25    29    1
