@<TRIPOS>MOLECULE
BOSENTAN_50CONFORMERS.pdb
 39 42 0 0 0
SMALL
GASTEIGER

@<TRIPOS>ATOM
      1  S1        -2.3470   -1.6990    2.6580 S.O2    1  LGD1        0.0943
      2  O2        -1.2200   -2.5530    3.1180 O.2     1  LGD1       -0.1483
      3  O3        -2.9190   -0.5720    3.4940 O.2     1  LGD1       -0.1483
      4  O4        -2.4260   -2.7810   -0.3200 O.3     1  LGD1       -0.4427
      5  O5        -0.6110   -3.7890   -2.1000 O.3     1  LGD1       -0.4552
      6  O6        -3.9720   -4.6430   -1.7100 O.3     1  LGD1       -0.4684
      7  O7        -1.6330   -4.6130   -4.6310 O.3     1  LGD1       -0.2162
      8  N8        -1.7880   -0.7110    1.4080 N.pl3   1  LGD1       -0.0737
      9  N9         0.3750   -0.5760    0.4340 N.ar    1  LGD1       -0.2027
     10  N10        0.9860   -2.1010   -1.3300 N.ar    1  LGD1       -0.1866
     11  N11        2.7390    0.8430    0.2620 N.ar    1  LGD1       -0.2224
     12  N12        3.1170   -0.0950   -1.9080 N.ar    1  LGD1       -0.2224
     13  C13       -7.1620   -5.1100    0.9650 C.3     1  LGD1        0.0189
     14  C14       -5.9190   -4.2390    1.3530 C.ar    1  LGD1       -0.0227
     15  C15       -8.0720   -4.4580   -0.0220 C.3     1  LGD1        0.0044
     16  C16       -8.1630   -5.3510    2.1640 C.3     1  LGD1        0.0044
     17  C17       -6.6420   -6.4490    0.4160 C.3     1  LGD1        0.0044
     18  C18       -5.9620   -2.8920    1.2090 C.ar    1  LGD1       -0.0029
     19  C19       -4.7600   -4.8180    1.9130 C.ar    1  LGD1       -0.0029
     20  C20       -3.7110   -2.6980    2.0940 C.ar    1  LGD1        0.1271
     21  C21       -4.8110   -2.1180    1.4700 C.ar    1  LGD1        0.0199
     22  C22       -3.6300   -4.0670    2.2900 C.ar    1  LGD1        0.0199
     23  C23       -0.8530   -1.1250    0.4570 C.ar    1  LGD1        0.2125
     24  C24       -1.1170   -2.2520   -0.2880 C.ar    1  LGD1        0.2327
     25  C25       -0.2310   -2.7540   -1.2140 C.ar    1  LGD1        0.2651
     26  C26        1.2200   -0.9680   -0.5620 C.ar    1  LGD1        0.2028
     27  C27       -3.2710   -2.3590   -1.3970 C.ar    1  LGD1        0.1793
     28  C28        2.4220    0.0480   -0.7810 C.ar    1  LGD1        0.1990
     29  C29        0.1900   -3.8350   -3.3400 C.3     1  LGD1        0.2426
     30  C30       -4.1250   -3.2990   -2.0170 C.ar    1  LGD1        0.1730
     31  C31       -3.3940   -0.9890   -1.7430 C.ar    1  LGD1        0.0406
     32  C32       -4.9720   -2.9260   -3.0820 C.ar    1  LGD1        0.0401
     33  C33       -0.2970   -4.9710   -4.2150 C.3     1  LGD1        0.2292
     34  C34       -4.2880   -0.5840   -2.7470 C.ar    1  LGD1        0.0033
     35  C35       -4.9710   -1.5840   -3.4910 C.ar    1  LGD1        0.0033
     36  C36        3.7980    1.6710    0.0410 C.ar    1  LGD1        0.1023
     37  C37        4.1420    0.6850   -2.1220 C.ar    1  LGD1        0.1023
     38  C38        4.5320    1.5620   -1.0940 C.ar    1  LGD1        0.0414
     39  C39       -4.5400   -5.6070   -2.5800 C.3     1  LGD1        0.2526
@<TRIPOS>BOND
     1    33     7    1
     2    33    29    1
     3     5    29    1
     4     5    25    1
     5    10    25   ar
     6    10    26   ar
     7    36    11   ar
     8    36    38   ar
     9    11    28   ar
    10    25    24   ar
    11    38    37   ar
    12    34    31   ar
    13    34    35   ar
    14    28    26    1
    15    28    12   ar
    16    26     9   ar
    17    31    27   ar
    18    37    12   ar
    19    24     4    1
    20    24    23   ar
    21     4    27    1
    22    27    30   ar
    23    35    32   ar
    24    15    13    1
    25     9    23   ar
    26    23     8    1
    27    30    32   ar
    28    30     6    1
    29     6    39    1
    30     8     1    1
    31    18    14   ar
    32    18    21   ar
    33    13    14    1
    34    13    17    1
    35    13    16    1
    36    14    19   ar
    37    21    20   ar
    38    20     1    1
    39    20    22   ar
    40    19    22   ar
    41     1     2    2
    42     1     3    2
@<TRIPOS>MOLECULE
156690
 38 41 0 0 0
SMALL
GASTEIGER

@<TRIPOS>ATOM
      1 S          -3.3004    0.3897   -0.1176 S.O2    1  LIG11       0.0741
      2 O          -8.0967   -6.0489   -0.5139 O.2     1  LIG11      -0.2756
      3 O          -3.7539    1.7089   -0.5208 O.2     1  LIG11      -0.1499
      4 O          -3.5506   -0.0512    1.2322 O.2     1  LIG11      -0.1499
      5 O          -5.7848   -5.7824    4.2224 O.2     1  LIG11      -0.4436
      6 O           0.2364   -2.1683    1.0981 O.2     1  LIG11      -0.3578
      7 N          -8.2161   -3.9055    0.2947 N.am    1  LIG11      -0.3002
      8 N          -1.6089    0.3881   -0.4203 N.pl3   1  LIG11      -0.1965
      9 N          -4.0601   -4.6440    5.1322 N.ar    1  LIG11      -0.2175
     10 N          -0.2756   -0.8845    1.0717 N.ar    1  LIG11      -0.0614
     11 C         -10.6093   -6.9510    0.6713 C.3     1  LIG11      -0.0295
     12 C         -10.0333   -5.5185    0.8267 C.3     1  LIG11       0.0290
     13 C         -11.9315   -7.0070    1.4681 C.3     1  LIG11      -0.0596
     14 C         -10.9282   -7.2769   -0.7976 C.3     1  LIG11      -0.0596
     15 C          -9.6634   -8.0156    1.2525 C.3     1  LIG11      -0.0596
     16 C          -8.7070   -5.2019    0.1376 C.2     1  LIG11       0.2161
     17 C          -6.9357   -3.5647   -0.3360 C.3     1  LIG11       0.0400
     18 C          -5.7348   -3.4869    0.6046 C.ar    1  LIG11      -0.0216
     19 C          -4.5438   -2.7852    0.2448 C.ar    1  LIG11      -0.0113
     20 C          -4.3579   -2.0984   -1.0766 C.ar    1  LIG11       0.0090
     21 C          -8.8777   -2.8265    1.0175 C.3     1  LIG11       0.0035
     22 C          -5.7897   -4.1909    1.8395 C.ar    1  LIG11      -0.0442
     23 C          -3.9363   -0.7669   -1.3249 C.ar    1  LIG11       0.1162
     24 C          -3.4923   -2.8401    1.1725 C.ar    1  LIG11      -0.0529
     25 C          -4.7416   -4.1652    2.7645 C.ar    1  LIG11       0.0372
     26 C          -3.5916   -3.4723    2.4152 C.ar    1  LIG11      -0.0489
     27 C          -4.6286   -2.8708   -2.2353 C.ar    1  LIG11      -0.0521
     28 C          -3.9671   -0.2325   -2.6385 C.ar    1  LIG11      -0.0345
     29 C          -4.6385   -2.3400   -3.5303 C.ar    1  LIG11      -0.0611
     30 C          -4.8169   -4.8228    4.0642 C.ar    1  LIG11       0.2271
     31 C          -4.3346   -1.0067   -3.7304 C.ar    1  LIG11      -0.0599
     32 C          -0.8765   -0.7583   -0.1122 C.ar    1  LIG11       0.1837
     33 C          -0.6077   -1.8729   -0.9506 C.ar    1  LIG11       0.0342
     34 C           0.0085   -2.7681   -0.0995 C.ar    1  LIG11       0.1390
     35 C          -0.9253   -2.0925   -2.3766 C.3     1  LIG11      -0.0330
     36 C          -5.6032   -6.2299    5.4962 C.ar    1  LIG11       0.1125
     37 C          -4.5661   -5.5260    6.0510 C.ar    1  LIG11       0.0663
     38 C           0.4168   -4.1816   -0.2237 C.3     1  LIG11      -0.0034
@<TRIPOS>BOND
     1     1     3    2
     2     1     4    2
     3     1     8    1
     4     1    23    1
     5     2    16    2
     6     5    30   ar
     7     5    36   ar
     8     6    10   ar
     9     6    34   ar
    10     7    16   am
    11     7    17    1
    12     7    21    1
    13     8    32    1
    14     9    30   ar
    15     9    37   ar
    16    10    32   ar
    17    11    12    1
    18    11    13    1
    19    11    14    1
    20    11    15    1
    21    12    16    1
    22    17    18    1
    23    18    19   ar
    24    18    22   ar
    25    19    20    1
    26    19    24   ar
    27    20    23   ar
    28    20    27   ar
    29    22    25   ar
    30    23    28   ar
    31    24    26   ar
    32    25    26   ar
    33    25    30    1
    34    27    29   ar
    35    28    31   ar
    36    29    31   ar
    37    32    33   ar
    38    33    34   ar
    39    33    35    1
    40    34    38    1
    41    36    37   ar
