@<TRIPOS>MOLECULE
BOSENTAN_50CONFORMERS.pdb
 39 42 0 0 0
SMALL
GASTEIGER

@<TRIPOS>ATOM
      1  S1        -1.5600    0.1400    2.8420 S.O2    1  LGD1        0.0943
      2  O2        -0.9350    1.4220    2.4130 O.2     1  LGD1       -0.1483
      3  O3        -2.9150    0.0990    3.3870 O.2     1  LGD1       -0.1483
      4  O4        -2.3630   -2.9540   -0.0030 O.3     1  LGD1       -0.4427
      5  O5        -0.5650   -3.7540   -2.1300 O.3     1  LGD1       -0.4552
      6  O6        -0.3240   -4.6800    0.9300 O.3     1  LGD1       -0.4684
      7  O7        -1.0280   -5.0230   -4.7770 O.3     1  LGD1       -0.2162
      8  N8        -1.7690   -0.7210    1.4030 N.pl3   1  LGD1       -0.0737
      9  N9         0.3520   -0.4890    0.3510 N.ar    1  LGD1       -0.2027
     10  N10        1.0110   -2.1490   -1.2770 N.ar    1  LGD1       -0.1866
     11  N11        3.1480   -0.3710    0.8620 N.ar    1  LGD1       -0.2224
     12  N12        3.3190   -0.3940   -1.5370 N.ar    1  LGD1       -0.2224
     13  C13        2.1990   -3.3310    6.0130 C.3     1  LGD1        0.0189
     14  C14        1.2120   -2.4890    5.1830 C.ar    1  LGD1       -0.0227
     15  C15        1.6180   -4.6070    6.7170 C.3     1  LGD1        0.0044
     16  C16        2.7270   -2.4340    7.1650 C.3     1  LGD1        0.0044
     17  C17        3.3710   -3.8180    5.2220 C.3     1  LGD1        0.0044
     18  C18       -0.1550   -2.6870    5.2110 C.ar    1  LGD1       -0.0029
     19  C19        1.7590   -1.4720    4.3330 C.ar    1  LGD1       -0.0029
     20  C20       -0.4670   -0.8250    3.7520 C.ar    1  LGD1        0.1271
     21  C21       -0.9840   -1.7530    4.5850 C.ar    1  LGD1        0.0199
     22  C22        0.9130   -0.6230    3.6310 C.ar    1  LGD1        0.0199
     23  C23       -0.8100   -1.1400    0.5330 C.ar    1  LGD1        0.2125
     24  C24       -1.1460   -2.2520   -0.2650 C.ar    1  LGD1        0.2327
     25  C25       -0.2600   -2.7420   -1.2560 C.ar    1  LGD1        0.2651
     26  C26        1.1690   -1.0290   -0.5500 C.ar    1  LGD1        0.2028
     27  C27       -2.4630   -4.2870   -0.0290 C.ar    1  LGD1        0.1793
     28  C28        2.6480   -0.5720   -0.3730 C.ar    1  LGD1        0.1990
     29  C29       -1.4080   -3.2040   -3.1580 C.3     1  LGD1        0.2426
     30  C30       -1.4840   -5.1510    0.4360 C.ar    1  LGD1        0.1730
     31  C31       -3.5640   -4.8130   -0.6710 C.ar    1  LGD1        0.0406
     32  C32       -1.5640   -6.5400    0.3470 C.ar    1  LGD1        0.0401
     33  C33       -1.9660   -4.3730   -3.9900 C.3     1  LGD1        0.2292
     34  C34       -3.6820   -6.2140   -0.8010 C.ar    1  LGD1        0.0033
     35  C35       -2.7260   -7.0980   -0.2740 C.ar    1  LGD1        0.0033
     36  C36        4.4360    0.1070    0.8470 C.ar    1  LGD1        0.1023
     37  C37        4.6360   -0.0820   -1.5800 C.ar    1  LGD1        0.1023
     38  C38        5.1950    0.1290   -0.3330 C.ar    1  LGD1        0.0414
     39  C39       -0.3450   -4.5330    2.4310 C.3     1  LGD1        0.2526
@<TRIPOS>BOND
     1    33     7    1
     2    33    29    1
     3     5    29    1
     4     5    25    1
     5    10    25   ar
     6    10    26   ar
     7    36    11   ar
     8    36    38   ar
     9    11    28   ar
    10    25    24   ar
    11    38    37   ar
    12    34    31   ar
    13    34    35   ar
    14    28    26    1
    15    28    12   ar
    16    26     9   ar
    17    31    27   ar
    18    37    12   ar
    19    24     4    1
    20    24    23   ar
    21     4    27    1
    22    27    30   ar
    23    35    32   ar
    24    15    13    1
    25     9    23   ar
    26    23     8    1
    27    30    32   ar
    28    30     6    1
    29     6    39    1
    30     8     1    1
    31    18    14   ar
    32    18    21   ar
    33    13    14    1
    34    13    17    1
    35    13    16    1
    36    14    19   ar
    37    21    20   ar
    38    20     1    1
    39    20    22   ar
    40    19    22   ar
    41     1     2    2
    42     1     3    2
@<TRIPOS>MOLECULE
9871593
 37 40 0 0 0
SMALL
GASTEIGER

@<TRIPOS>ATOM
      1 O           0.1172   -0.7796    7.2595 O.3     1  LIG11      -0.4526
      2 O           1.5770    0.5991    5.9224 O.3     1  LIG11      -0.4526
      3 O          -1.4692    0.4071   -1.9393 O.3     1  LIG11      -0.4913
      4 O           1.5361   -3.2678   -1.4824 O.3     1  LIG11      -0.4913
      5 O           0.8004   -1.1791   -2.8115 O.3     1  LIG11      -0.4885
      6 O          -3.1953   -5.6099    3.1692 O.2     1  LIG11      -0.2870
      7 O           0.2476   -6.0675    3.1496 O.co2   1  LIG11      -0.5446
      8 O          -0.1433   -5.4822    5.3303 O.co2   1  LIG11      -0.5446
      9 O          -3.2250   -7.0643   -2.8973 O.3     1  LIG11      -0.4951
     10 C          -2.0894   -2.6228    1.9203 C.3     1  LIG11       0.0021
     11 C          -1.6418   -3.8832    2.6126 C.2     1  LIG11       0.0135
     12 C          -1.3536   -2.2726    0.6318 C.ar    1  LIG11      -0.0358
     13 C          -0.6951   -3.9486    3.5775 C.2     1  LIG11       0.0117
     14 C          -0.0235   -2.7724    4.1631 C.ar    1  LIG11      -0.0121
     15 C          -2.4582   -5.1087    2.3240 C.2     1  LIG11       0.1901
     16 C          -0.2688   -3.0110    0.1416 C.ar    1  LIG11      -0.0126
     17 C          -1.7462   -1.1264   -0.0747 C.ar    1  LIG11      -0.0126
     18 C          -0.3080   -2.4079    5.4897 C.ar    1  LIG11      -0.0084
     19 C           0.2787   -1.2678    5.9990 C.ar    1  LIG11       0.1668
     20 C           0.8544   -1.9677    3.4034 C.ar    1  LIG11      -0.0503
     21 C           1.1130   -0.4824    5.2388 C.ar    1  LIG11       0.1663
     22 C          -1.0714   -0.7001   -1.2327 C.ar    1  LIG11       0.1654
     23 C           0.4349   -2.5983   -0.9946 C.ar    1  LIG11       0.1654
     24 C          -2.5701   -5.5814    0.9312 C.ar    1  LIG11       0.0222
     25 C           0.0298   -1.4446   -1.7029 C.ar    1  LIG11       0.2035
     26 C           1.4189   -0.8023    3.9354 C.ar    1  LIG11      -0.0156
     27 C          -0.1685   -5.3109    4.0801 C.2     1  LIG11       0.0726
     28 C           1.0000    0.3564    7.2218 C.3     1  LIG11       0.2332
     29 C          -3.5927   -5.0804    0.1186 C.ar    1  LIG11      -0.0475
     30 C          -1.7432   -6.6066    0.4700 C.ar    1  LIG11      -0.0475
     31 C          -3.7629   -5.5818   -1.1713 C.ar    1  LIG11      -0.0193
     32 C          -1.9337   -7.1247   -0.8171 C.ar    1  LIG11      -0.0193
     33 C          -2.9545   -6.6224   -1.6299 C.ar    1  LIG11       0.1201
     34 C          -2.3219    1.3371   -1.2840 C.3     1  LIG11       0.0790
     35 C           2.2108   -4.1314   -0.5715 C.3     1  LIG11       0.0790
     36 C           0.6746    0.0681   -3.4689 C.3     1  LIG11       0.0791
     37 C          -3.1495   -8.4789   -3.0437 C.3     1  LIG11       0.0788
@<TRIPOS>BOND
     1     1    19    1
     2     1    28    1
     3     2    28    1
     4     2    21    1
     5     3    22    1
     6     3    34    1
     7     4    23    1
     8     4    35    1
     9     5    25    1
    10     5    36    1
    11     6    15    2
    12     7    27   ar
    13     8    27   ar
    14     9    33    1
    15     9    37    1
    16    10    11    1
    17    10    12    1
    18    11    13    2
    19    11    15    1
    20    12    16   ar
    21    12    17   ar
    22    13    14    1
    23    13    27    1
    24    14    20   ar
    25    14    18   ar
    26    15    24    1
    27    16    23   ar
    28    17    22   ar
    29    18    19   ar
    30    19    21   ar
    31    20    26   ar
    32    21    26   ar
    33    22    25   ar
    34    23    25   ar
    35    24    29   ar
    36    24    30   ar
    37    29    31   ar
    38    30    32   ar
    39    31    33   ar
    40    32    33   ar
