@<TRIPOS>MOLECULE
BOSENTAN_50CONFORMERS.pdb
 39 42 0 0 0
SMALL
GASTEIGER

@<TRIPOS>ATOM
      1  S1        -1.4260    0.2990    2.6550 S.O2    1  LGD1        0.0943
      2  O2        -1.3660    1.6850    2.0670 O.2     1  LGD1       -0.1483
      3  O3        -2.5040    0.0830    3.6090 O.2     1  LGD1       -0.1483
      4  O4        -2.4800   -2.7380   -0.2590 O.3     1  LGD1       -0.4427
      5  O5        -0.5770   -3.7940   -2.0860 O.3     1  LGD1       -0.4552
      6  O6        -4.4040   -4.3140   -1.4350 O.3     1  LGD1       -0.4684
      7  O7        -0.6830   -3.4190   -5.2080 O.3     1  LGD1       -0.2162
      8  N8        -1.7390   -0.7410    1.4630 N.pl3   1  LGD1       -0.0737
      9  N9         0.3290   -0.4760    0.3600 N.ar    1  LGD1       -0.2027
     10  N10        1.0320   -2.1330   -1.3490 N.ar    1  LGD1       -0.1866
     11  N11        3.3330   -0.3710    0.5140 N.ar    1  LGD1       -0.2224
     12  N12        2.9120   -0.0740   -1.8800 N.ar    1  LGD1       -0.2224
     13  C13        4.0730   -0.6310    4.9900 C.3     1  LGD1        0.0189
     14  C14        2.6830   -0.3180    4.4560 C.ar    1  LGD1       -0.0227
     15  C15        4.3450    0.1670    6.3000 C.3     1  LGD1        0.0044
     16  C16        5.2120   -0.3690    4.0340 C.3     1  LGD1        0.0044
     17  C17        4.2790   -2.1100    5.3940 C.3     1  LGD1        0.0044
     18  C18        2.4730    0.6580    3.4640 C.ar    1  LGD1       -0.0029
     19  C19        1.5690   -1.0800    4.9960 C.ar    1  LGD1       -0.0029
     20  C20        0.2010    0.0220    3.3710 C.ar    1  LGD1        0.1271
     21  C21        1.2220    0.9110    2.9330 C.ar    1  LGD1        0.0199
     22  C22        0.2890   -0.9180    4.3910 C.ar    1  LGD1        0.0199
     23  C23       -0.8570   -1.1340    0.4950 C.ar    1  LGD1        0.2125
     24  C24       -1.1820   -2.2180   -0.3340 C.ar    1  LGD1        0.2327
     25  C25       -0.2190   -2.7190   -1.2290 C.ar    1  LGD1        0.2651
     26  C26        1.1960   -1.0610   -0.5120 C.ar    1  LGD1        0.2028
     27  C27       -2.6980   -4.0420    0.2520 C.ar    1  LGD1        0.1793
     28  C28        2.5860   -0.4180   -0.6440 C.ar    1  LGD1        0.1990
     29  C29        0.2990   -4.1530   -3.1820 C.3     1  LGD1        0.2426
     30  C30       -3.8060   -4.7870   -0.2170 C.ar    1  LGD1        0.1730
     31  C31       -1.9880   -4.4760    1.4260 C.ar    1  LGD1        0.0406
     32  C32       -4.1190   -6.0000    0.3710 C.ar    1  LGD1        0.0401
     33  C33        0.4040   -3.1370   -4.3570 C.3     1  LGD1        0.2292
     34  C34       -2.4310   -5.6940    1.9980 C.ar    1  LGD1        0.0033
     35  C35       -3.4770   -6.4420    1.4700 C.ar    1  LGD1        0.0033
     36  C36        4.5340    0.3080    0.4370 C.ar    1  LGD1        0.1023
     37  C37        4.1350    0.4620   -1.9690 C.ar    1  LGD1        0.1023
     38  C38        4.9330    0.6470   -0.8390 C.ar    1  LGD1        0.0414
     39  C39       -3.9480   -5.2130   -2.5330 C.3     1  LGD1        0.2526
@<TRIPOS>BOND
     1    33     7    1
     2    33    29    1
     3     5    29    1
     4     5    25    1
     5    10    25   ar
     6    10    26   ar
     7    36    11   ar
     8    36    38   ar
     9    11    28   ar
    10    25    24   ar
    11    38    37   ar
    12    34    31   ar
    13    34    35   ar
    14    28    26    1
    15    28    12   ar
    16    26     9   ar
    17    31    27   ar
    18    37    12   ar
    19    24     4    1
    20    24    23   ar
    21     4    27    1
    22    27    30   ar
    23    35    32   ar
    24    15    13    1
    25     9    23   ar
    26    23     8    1
    27    30    32   ar
    28    30     6    1
    29     6    39    1
    30     8     1    1
    31    18    14   ar
    32    18    21   ar
    33    13    14    1
    34    13    17    1
    35    13    16    1
    36    14    19   ar
    37    21    20   ar
    38    20     1    1
    39    20    22   ar
    40    19    22   ar
    41     1     2    2
    42     1     3    2
@<TRIPOS>MOLECULE
9939443
 43 47 0 0 0
SMALL
GASTEIGER

@<TRIPOS>ATOM
      1 S          -1.6334    0.2296    2.4783 S.O2    1  LIG11       0.0908
      2 O          -2.0734   -2.4929    0.2931 O.3     1  LIG11      -0.4435
      3 O          -2.5110   -0.8381    2.9620 O.2     1  LIG11      -0.1484
      4 O          -1.9679    1.6091    2.7708 O.2     1  LIG11      -0.1484
      5 O          -0.1643   -3.7058   -1.6707 O.3     1  LIG11      -0.4715
      6 O          -4.4747   -2.9793    1.3627 O.3     1  LIG11      -0.4914
      7 O          -0.9044   -3.0690   -4.4329 O.3     1  LIG11      -0.3917
      8 N          -1.5258    0.1273    0.8228 N.pl3   1  LIG11      -0.1950
      9 N           0.4775   -1.3273    2.8173 N.ar    1  LIG11      -0.2351
     10 N           0.6211   -0.1094    0.0859 N.ar    1  LIG11      -0.2073
     11 N           1.3747   -2.0713   -0.9971 N.ar    1  LIG11      -0.1899
     12 N           5.5170    0.8461   -0.5265 N.ar    1  LIG11      -0.2552
     13 N           6.3704    2.6065    1.5560 N.ar    1  LIG11      -0.5621
     14 N           4.4234    2.3231    2.6643 N.ar    1  LIG11      -0.1535
     15 N           6.2875    3.2908    2.6982 N.ar    1  LIG11      -0.3597
     16 N           5.1587    3.1432    3.3980 N.ar    1  LIG11      -0.0878
     17 C           4.1061   -0.9516    3.8937 C.3     1  LIG11      -0.0201
     18 C           2.6319   -0.6472    3.6895 C.ar    1  LIG11      -0.0266
     19 C           4.5134   -0.7723    5.3537 C.3     1  LIG11      -0.0586
     20 C           4.4940   -2.3554    3.4186 C.3     1  LIG11      -0.0586
     21 C           0.0166   -0.0804    3.1046 C.ar    1  LIG11       0.1969
     22 C           2.0899    0.6095    4.0176 C.ar    1  LIG11      -0.0535
     23 C           1.7670   -1.5655    3.0984 C.ar    1  LIG11       0.0332
     24 C           0.7606    0.9104    3.7137 C.ar    1  LIG11      -0.0160
     25 C          -0.5598   -0.7272    0.2568 C.ar    1  LIG11       0.1882
     26 C          -0.8554   -2.0302   -0.0978 C.ar    1  LIG11       0.2307
     27 C           0.1244   -2.5892   -0.8975 C.ar    1  LIG11       0.2641
     28 C           1.5837   -0.8667   -0.4395 C.ar    1  LIG11       0.1659
     29 C           2.9454   -0.3116   -0.4489 C.ar    1  LIG11       0.0227
     30 C          -2.3248   -3.7846    0.6903 C.ar    1  LIG11       0.1702
     31 C           3.4098    0.5274    0.5792 C.ar    1  LIG11      -0.0252
     32 C           3.8216   -0.5634   -1.5025 C.ar    1  LIG11      -0.0328
     33 C           0.6978   -3.9051   -2.8057 C.3     1  LIG11       0.1143
     34 C          -3.6405   -4.0449    1.1209 C.ar    1  LIG11       0.1621
     35 C           4.6801    1.0897    0.5086 C.ar    1  LIG11       0.0708
     36 C          -1.4252   -4.8502    0.6432 C.ar    1  LIG11      -0.0157
     37 C           5.0703    0.0334   -1.5041 C.ar    1  LIG11       0.0289
     38 C          -0.1075   -4.1965   -4.0783 C.3     1  LIG11       0.0783
     39 C          -4.0836   -5.3672    1.2455 C.ar    1  LIG11      -0.0163
     40 C          -1.8722   -6.1658    0.7750 C.ar    1  LIG11      -0.0581
     41 C          -3.2092   -6.4266    1.0362 C.ar    1  LIG11      -0.0581
     42 C           5.1664    1.9980    1.5491 C.ar    1  LIG11       0.0207
     43 C          -5.4087   -3.2087    2.4203 C.3     1  LIG11       0.0790
@<TRIPOS>BOND
     1     1    21    1
     2     1     8    1
     3     1     4    2
     4     1     3    2
     5     2    26    1
     6     2    30    1
     7     5    27    1
     8     5    33    1
     9     6    34    1
    10     6    43    1
    11     7    38    1
    12     8    25    1
    13     9    23   ar
    14     9    21   ar
    15    10    25   ar
    16    10    28   ar
    17    11    27   ar
    18    11    28   ar
    19    12    37   ar
    20    12    35   ar
    21    13    15   ar
    22    13    42   ar
    23    14    42   ar
    24    14    16   ar
    25    15    16   ar
    26    17    18    1
    27    17    20    1
    28    17    19    1
    29    18    23   ar
    30    18    22   ar
    31    21    24   ar
    32    22    24   ar
    33    25    26   ar
    34    26    27   ar
    35    28    29    1
    36    29    31   ar
    37    29    32   ar
    38    30    36   ar
    39    30    34   ar
    40    31    35   ar
    41    32    37   ar
    42    33    38    1
    43    34    39   ar
    44    35    42    1
    45    36    40   ar
    46    39    41   ar
    47    40    41   ar
