@<TRIPOS>MOLECULE
BOSENTAN_50CONFORMERS.pdb
 39 42 0 0 0
SMALL
GASTEIGER

@<TRIPOS>ATOM
      1  S1        -1.6290   -0.5410    3.0410 S.O2    1  LGD1        0.0943
      2  O2        -0.4420    0.3510    3.2000 O.2     1  LGD1       -0.1483
      3  O3        -3.0160   -0.2070    3.4680 O.2     1  LGD1       -0.1483
      4  O4        -2.4470   -2.7230   -0.2210 O.3     1  LGD1       -0.4427
      5  O5        -0.5380   -3.7880   -2.1140 O.3     1  LGD1       -0.4552
      6  O6        -0.9620   -4.7480    1.1500 O.3     1  LGD1       -0.4684
      7  O7        -2.8990   -4.3780   -3.8350 O.3     1  LGD1       -0.2162
      8  N8        -1.8040   -0.6650    1.4400 N.pl3   1  LGD1       -0.0737
      9  N9         0.3560   -0.5730    0.3680 N.ar    1  LGD1       -0.2027
     10  N10        0.9970   -2.1130   -1.3590 N.ar    1  LGD1       -0.1866
     11  N11        3.4450   -0.9410   -1.5200 N.ar    1  LGD1       -0.2224
     12  N12        2.7870    0.6450    0.2990 N.ar    1  LGD1       -0.2224
     13  C13       -0.3360   -6.0000    5.3110 C.3     1  LGD1        0.0189
     14  C14       -0.6630   -4.7720    4.5560 C.ar    1  LGD1       -0.0227
     15  C15       -1.6000   -6.8090    5.6840 C.3     1  LGD1        0.0044
     16  C16        0.4400   -5.6310    6.5890 C.3     1  LGD1        0.0044
     17  C17        0.4680   -7.0470    4.5530 C.3     1  LGD1        0.0044
     18  C18        0.3710   -3.9310    4.1700 C.ar    1  LGD1       -0.0029
     19  C19       -1.9920   -4.3450    4.3180 C.ar    1  LGD1       -0.0029
     20  C20       -1.2530   -2.2700    3.4720 C.ar    1  LGD1        0.1271
     21  C21        0.0440   -2.7060    3.5630 C.ar    1  LGD1        0.0199
     22  C22       -2.3440   -3.1390    3.7790 C.ar    1  LGD1        0.0199
     23  C23       -0.8150   -1.1170    0.5260 C.ar    1  LGD1        0.2125
     24  C24       -1.1570   -2.2690   -0.2720 C.ar    1  LGD1        0.2327
     25  C25       -0.2470   -2.7280   -1.2530 C.ar    1  LGD1        0.2651
     26  C26        1.1890   -1.0250   -0.5290 C.ar    1  LGD1        0.2028
     27  C27       -2.8730   -4.1110   -0.2090 C.ar    1  LGD1        0.1793
     28  C28        2.5800   -0.3910   -0.6340 C.ar    1  LGD1        0.1990
     29  C29       -0.7960   -3.3430   -3.4450 C.3     1  LGD1        0.2426
     30  C30       -2.0950   -5.1010    0.4100 C.ar    1  LGD1        0.1730
     31  C31       -4.0020   -4.4750   -1.0010 C.ar    1  LGD1        0.0406
     32  C32       -2.6080   -6.4360    0.4450 C.ar    1  LGD1        0.0401
     33  C33       -1.5730   -4.3030   -4.3390 C.3     1  LGD1        0.2292
     34  C34       -4.4310   -5.8030   -0.8990 C.ar    1  LGD1        0.0033
     35  C35       -3.7390   -6.8060   -0.2040 C.ar    1  LGD1        0.0033
     36  C36        4.6850   -0.4200   -1.5000 C.ar    1  LGD1        0.1023
     37  C37        4.0200    1.2000    0.2290 C.ar    1  LGD1        0.1023
     38  C38        4.9740    0.5840   -0.5600 C.ar    1  LGD1        0.0414
     39  C39        0.2230   -5.5170    0.9220 C.3     1  LGD1        0.2526
@<TRIPOS>BOND
     1    33     7    1
     2    33    29    1
     3     5    29    1
     4     5    25    1
     5    10    25   ar
     6    10    26   ar
     7    36    11   ar
     8    36    38   ar
     9    11    28   ar
    10    25    24   ar
    11    38    37   ar
    12    34    31   ar
    13    34    35   ar
    14    28    26    1
    15    28    12   ar
    16    26     9   ar
    17    31    27   ar
    18    37    12   ar
    19    24     4    1
    20    24    23   ar
    21     4    27    1
    22    27    30   ar
    23    35    32   ar
    24    15    13    1
    25     9    23   ar
    26    23     8    1
    27    30    32   ar
    28    30     6    1
    29     6    39    1
    30     8     1    1
    31    18    14   ar
    32    18    21   ar
    33    13    14    1
    34    13    17    1
    35    13    16    1
    36    14    19   ar
    37    21    20   ar
    38    20     1    1
    39    20    22   ar
    40    19    22   ar
    41     1     2    2
    42     1     3    2
@<TRIPOS>MOLECULE
2-[[2-[2-butyl-4-[(Z)-2-carboxy-3-(6-methoxy-1,3-benzodioxol-5-yl)prop-1-enyl]pyrazol-3-yl]-5-methoxyphenoxy]methyl]benzoic acid
 45 49 0 0 0
SMALL
GASTEIGER

@<TRIPOS>ATOM
      1 O          -0.4196   -3.3236    1.4883 O.3     1  LIG11      -0.4866
      2 O           5.5238    0.6059   -2.6553 O.3     1  LIG11      -0.4526
      3 O           4.3928    2.3767   -1.4696 O.3     1  LIG11      -0.4525
      4 O           3.0233   -0.6676    2.0625 O.3     1  LIG11      -0.4947
      5 O          -4.0806   -2.9524    4.7160 O.3     1  LIG11      -0.4950
      6 O           2.3116   -5.2863   -1.1294 O.co2   1  LIG11      -0.5449
      7 O           4.1809   -4.1178   -1.6810 O.co2   1  LIG11      -0.5449
      8 O          -3.7609   -1.5390   -0.3932 O.co2   1  LIG11      -0.5446
      9 O          -4.4386   -2.4068   -2.3687 O.co2   1  LIG11      -0.5446
     10 N           2.2965   -3.2729    4.8309 N.ar    1  LIG11      -0.2630
     11 N           3.4852   -3.9092    4.8589 N.ar    1  LIG11      -0.1785
     12 C           1.4772   -3.6795    3.7665 C.ar    1  LIG11       0.0795
     13 C           2.0259   -2.2475    5.8271 C.3     1  LIG11       0.0422
     14 C           3.2549   -1.5626    6.4486 C.3     1  LIG11      -0.0336
     15 C           2.4472   -4.0176    2.8223 C.ar    1  LIG11       0.0207
     16 C          -0.0107   -3.5839    3.8311 C.ar    1  LIG11       0.0425
     17 C           4.0861   -0.7436    5.4583 C.3     1  LIG11      -0.0542
     18 C           3.6164   -4.2728    3.5855 C.ar    1  LIG11       0.0571
     19 C           2.3717   -4.2543    1.4167 C.2     1  LIG11      -0.0459
     20 C           4.3874   -2.8158    0.7550 C.3     1  LIG11       0.0029
     21 C          -0.9009   -3.3017    2.7715 C.ar    1  LIG11       0.1336
     22 C           3.2467   -3.7802    0.4921 C.2     1  LIG11      -0.0200
     23 C           4.2717   -1.4112    0.1737 C.ar    1  LIG11       0.0023
     24 C          -0.5942   -3.8206    5.0997 C.ar    1  LIG11      -0.0456
     25 C           5.3023   -0.1317    6.1387 C.3     1  LIG11      -0.0652
     26 C          -2.2660   -3.0671    3.0518 C.ar    1  LIG11       0.0224
     27 C           3.5953   -0.3638    0.8522 C.ar    1  LIG11       0.1273
     28 C           4.9219   -1.1295   -1.0462 C.ar    1  LIG11      -0.0092
     29 C          -1.9486   -3.6114    5.3582 C.ar    1  LIG11      -0.0191
     30 C           4.9076    0.1622   -1.5258 C.ar    1  LIG11       0.1667
     31 C          -2.7845   -3.1853    4.3414 C.ar    1  LIG11       0.1236
     32 C           4.2654    1.1695   -0.8510 C.ar    1  LIG11       0.1697
     33 C           3.6001    0.9417    0.3340 C.ar    1  LIG11       0.0258
     34 C           3.2162   -4.4289   -0.9208 C.2     1  LIG11       0.0680
     35 C          -1.3048   -3.0611    0.3713 C.3     1  LIG11       0.1153
     36 C           5.1474    1.9945   -2.6369 C.3     1  LIG11       0.2332
     37 C          -2.3300   -4.1480    0.0301 C.ar    1  LIG11      -0.0016
     38 C          -3.4866   -3.8801   -0.7530 C.ar    1  LIG11       0.0037
     39 C          -2.0838   -5.4810    0.4209 C.ar    1  LIG11      -0.0547
     40 C           1.8788    0.1050    2.4045 C.3     1  LIG11       0.0788
     41 C          -4.3363   -4.9524   -1.1099 C.ar    1  LIG11      -0.0525
     42 C          -2.9608   -6.5173    0.0832 C.ar    1  LIG11      -0.0614
     43 C          -4.8860   -2.2670    3.7596 C.3     1  LIG11       0.0788
     44 C          -4.0846   -6.2563   -0.6899 C.ar    1  LIG11      -0.0611
     45 C          -3.8985   -2.4978   -1.2169 C.2     1  LIG11       0.0720
@<TRIPOS>BOND
     1     1    35    1
     2     1    21    1
     3     2    36    1
     4     2    30    1
     5     3    32    1
     6     3    36    1
     7     4    27    1
     8     4    40    1
     9     5    31    1
    10     5    43    1
    11     6    34   ar
    12     7    34   ar
    13     8    45   ar
    14     9    45   ar
    15    10    11   ar
    16    10    12   ar
    17    10    13    1
    18    11    18   ar
    19    12    15   ar
    20    13    14    1
    21    14    17    1
    22    15    18   ar
    23    15    19    1
    24    16    24   ar
    25    16    21   ar
    26    16    12    1
    27    17    25    1
    28    19    22    2
    29    20    22    1
    30    20    23    1
    31    21    26   ar
    32    22    34    1
    33    23    28   ar
    34    23    27   ar
    35    24    29   ar
    36    26    31   ar
    37    27    33   ar
    38    28    30   ar
    39    29    31   ar
    40    30    32   ar
    41    32    33   ar
    42    35    37    1
    43    37    39   ar
    44    37    38   ar
    45    38    41   ar
    46    38    45    1
    47    39    42   ar
    48    41    44   ar
    49    42    44   ar
