@<TRIPOS>MOLECULE
BOSENTAN_50CONFORMERS.pdb
 39 42 0 0 0
SMALL
GASTEIGER

@<TRIPOS>ATOM
      1  S1        -1.4970    0.4400    2.6580 S.O2    1  LGD1        0.0943
      2  O2        -0.8100   -0.4410    3.6510 O.2     1  LGD1       -0.1483
      3  O3        -0.9200    1.6840    2.0120 O.2     1  LGD1       -0.1483
      4  O4        -2.3710   -2.9870   -0.1220 O.3     1  LGD1       -0.4427
      5  O5        -0.5470   -3.8010   -2.0600 O.3     1  LGD1       -0.4552
      6  O6        -0.7430   -4.8190    1.2510 O.3     1  LGD1       -0.4684
      7  O7        -1.1510   -5.5230   -4.1990 O.3     1  LGD1       -0.2162
      8  N8        -1.7760   -0.7060    1.3760 N.pl3   1  LGD1       -0.0737
      9  N9         0.4170   -0.5780    0.4460 N.ar    1  LGD1       -0.2027
     10  N10        0.9570   -2.0600   -1.3620 N.ar    1  LGD1       -0.1866
     11  N11        2.3610    0.5000   -1.8300 N.ar    1  LGD1       -0.2224
     12  N12        3.4760   -0.6410    0.0820 N.ar    1  LGD1       -0.2224
     13  C13       -7.1790    1.1550    4.8090 C.3     1  LGD1        0.0189
     14  C14       -5.7770    0.9400    4.2660 C.ar    1  LGD1       -0.0227
     15  C15       -8.0860    2.1090    4.0520 C.3     1  LGD1        0.0044
     16  C16       -7.0320    1.7110    6.2150 C.3     1  LGD1        0.0044
     17  C17       -7.9580   -0.2170    4.9340 C.3     1  LGD1        0.0044
     18  C18       -5.0880    2.0730    3.7570 C.ar    1  LGD1       -0.0029
     19  C19       -5.1990   -0.3450    4.2590 C.ar    1  LGD1       -0.0029
     20  C20       -3.1420    0.6730    3.3020 C.ar    1  LGD1        0.1271
     21  C21       -3.7110    1.9450    3.3880 C.ar    1  LGD1        0.0199
     22  C22       -3.8680   -0.4280    3.7620 C.ar    1  LGD1        0.0199
     23  C23       -0.8220   -1.1540    0.4830 C.ar    1  LGD1        0.2125
     24  C24       -1.1840   -2.2400   -0.3020 C.ar    1  LGD1        0.2327
     25  C25       -0.2520   -2.7270   -1.2210 C.ar    1  LGD1        0.2651
     26  C26        1.1890   -1.0100   -0.5520 C.ar    1  LGD1        0.2028
     27  C27       -2.7840   -3.6490    0.9860 C.ar    1  LGD1        0.1793
     28  C28        2.4860   -0.3510   -0.7800 C.ar    1  LGD1        0.1990
     29  C29        0.3250   -4.0080   -3.2670 C.3     1  LGD1        0.2426
     30  C30       -2.0040   -4.5850    1.6330 C.ar    1  LGD1        0.1730
     31  C31       -4.0360   -3.3250    1.4550 C.ar    1  LGD1        0.0406
     32  C32       -2.5190   -5.2950    2.7260 C.ar    1  LGD1        0.0401
     33  C33       -0.6280   -4.2550   -4.4030 C.3     1  LGD1        0.2292
     34  C34       -4.5900   -4.1080    2.4960 C.ar    1  LGD1        0.0033
     35  C35       -3.8510   -5.0820    3.1320 C.ar    1  LGD1        0.0033
     36  C36        3.4930    1.1150   -2.1940 C.ar    1  LGD1        0.1023
     37  C37        4.6690   -0.0760   -0.3150 C.ar    1  LGD1        0.1023
     38  C38        4.6380    0.7360   -1.4650 C.ar    1  LGD1        0.0414
     39  C39       -0.7280   -5.9650    0.4290 C.3     1  LGD1        0.2526
@<TRIPOS>BOND
     1    33     7    1
     2    33    29    1
     3     5    29    1
     4     5    25    1
     5    10    25   ar
     6    10    26   ar
     7    36    11   ar
     8    36    38   ar
     9    11    28   ar
    10    25    24   ar
    11    38    37   ar
    12    34    31   ar
    13    34    35   ar
    14    28    26    1
    15    28    12   ar
    16    26     9   ar
    17    31    27   ar
    18    37    12   ar
    19    24     4    1
    20    24    23   ar
    21     4    27    1
    22    27    30   ar
    23    35    32   ar
    24    15    13    1
    25     9    23   ar
    26    23     8    1
    27    30    32   ar
    28    30     6    1
    29     6    39    1
    30     8     1    1
    31    18    14   ar
    32    18    21   ar
    33    13    14    1
    34    13    17    1
    35    13    16    1
    36    14    19   ar
    37    21    20   ar
    38    20     1    1
    39    20    22   ar
    40    19    22   ar
    41     1     2    2
    42     1     3    2
@<TRIPOS>MOLECULE
9911482
 30 32 0 0 0
SMALL
GASTEIGER

@<TRIPOS>ATOM
      1 S          -2.1185   -5.4827    4.6942 S.O2    1  LIG11       0.0758
      2 S          -4.7939   -2.9848    2.5246 S.2     1  LIG11      -0.0902
      3 O          -5.0860   -7.3707    4.8047 O.2     1  LIG11      -0.3377
      4 O          -1.4208   -4.4244    5.3929 O.2     1  LIG11      -0.1499
      5 O          -1.4000   -6.4492    3.8927 O.2     1  LIG11      -0.1499
      6 O          -4.4728   -4.0238    6.1329 O.2     1  LIG11      -0.2692
      7 O          -7.0170   -0.8718    6.1715 O.2     1  LIG11      -0.2923
      8 N          -4.5958   -1.8586    5.5895 N.am    1  LIG11      -0.2802
      9 N          -3.1345   -6.2701    5.8025 N.pl3   1  LIG11      -0.1831
     10 N          -5.4409   -8.6293    4.3525 N.ar    1  LIG11      -0.0810
     11 C          -4.4706   -0.7041    4.7905 C.ar    1  LIG11       0.0471
     12 C          -3.0912   -4.5990    3.5476 C.ar    1  LIG11       0.1277
     13 C          -3.2262   -0.2780    4.2921 C.ar    1  LIG11      -0.0283
     14 C          -5.6299    0.0505    4.5118 C.ar    1  LIG11       0.0388
     15 C          -3.9591   -3.5779    3.9041 C.ar    1  LIG11       0.1007
     16 C          -4.3390    1.5797    3.1415 C.ar    1  LIG11      -0.0494
     17 C          -3.1836    0.8504    3.4504 C.ar    1  LIG11      -0.0541
     18 C          -5.5633    1.1754    3.6811 C.ar    1  LIG11      -0.0466
     19 C          -4.3245   -3.1708    5.2545 C.2     1  LIG11       0.2568
     20 C          -3.7997   -7.3902    5.2398 C.ar    1  LIG11       0.2399
     21 C          -3.0520   -4.8215    2.1361 C.ar    1  LIG11      -0.0273
     22 C          -3.3010   -8.6706    5.1501 C.ar    1  LIG11       0.0350
     23 C          -1.9172   -0.9313    4.6469 C.3     1  LIG11      -0.0379
     24 C          -6.9476   -0.3964    5.0394 C.2     1  LIG11       0.1619
     25 C          -4.3743   -9.4067    4.5770 C.ar    1  LIG11       0.0854
     26 C          -3.9218   -3.9955    1.4618 C.ar    1  LIG11      -0.0217
     27 C          -4.2790    2.7632    2.2200 C.3     1  LIG11      -0.0397
     28 C          -1.9831   -9.1873    5.5842 C.3     1  LIG11      -0.0330
     29 C          -4.4214  -10.8546    4.2620 C.3     1  LIG11      -0.0188
     30 C          -8.1543   -0.2820    4.1475 C.3     1  LIG11      -0.0013
@<TRIPOS>BOND
     1     1     4    2
     2     1     5    2
     3     1     9    1
     4     1    12    1
     5     2    15   ar
     6     2    26   ar
     7     3    10   ar
     8     3    20   ar
     9     6    19    2
    10     7    24    2
    11     8    11    1
    12     8    19   am
    13     9    20    1
    14    10    25   ar
    15    11    13   ar
    16    11    14   ar
    17    12    15   ar
    18    12    21   ar
    19    13    17   ar
    20    13    23    1
    21    14    18   ar
    22    14    24    1
    23    15    19    1
    24    16    17   ar
    25    16    18   ar
    26    16    27    1
    27    20    22   ar
    28    21    26   ar
    29    22    25   ar
    30    22    28    1
    31    24    30    1
    32    25    29    1
