@<TRIPOS>MOLECULE
BOSENTAN_50CONFORMERS.pdb
 39 42 0 0 0
SMALL
GASTEIGER

@<TRIPOS>ATOM
      1  S1        -1.5470    0.3490    2.7160 S.O2    1  LGD1        0.0943
      2  O2        -0.7530    1.4980    2.2170 O.2     1  LGD1       -0.1483
      3  O3        -2.8600    0.5760    3.4280 O.2     1  LGD1       -0.1483
      4  O4        -2.2520   -2.9670   -0.1090 O.3     1  LGD1       -0.4427
      5  O5        -0.5680   -3.7520   -2.0580 O.3     1  LGD1       -0.4552
      6  O6        -0.3510   -4.4310    1.3380 O.3     1  LGD1       -0.4684
      7  O7         0.6390   -6.3300   -1.1040 O.3     1  LGD1       -0.2162
      8  N8        -1.8990   -0.6020    1.4090 N.pl3   1  LGD1       -0.0737
      9  N9         0.3940   -0.6390    0.4710 N.ar    1  LGD1       -0.2027
     10  N10        0.9380   -2.0520   -1.4960 N.ar    1  LGD1       -0.1866
     11  N11        3.7330   -1.1540   -1.0430 N.ar    1  LGD1       -0.2224
     12  N12        2.6710    0.8370   -0.2040 N.ar    1  LGD1       -0.2224
     13  C13        2.0030   -3.0990    6.2740 C.3     1  LGD1        0.0189
     14  C14        1.0980   -2.2740    5.3200 C.ar    1  LGD1       -0.0227
     15  C15        2.8100   -2.2530    7.1700 C.3     1  LGD1        0.0044
     16  C16        3.0940   -3.8700    5.4960 C.3     1  LGD1        0.0044
     17  C17        1.2780   -4.1180    7.2370 C.3     1  LGD1        0.0044
     18  C18        1.6550   -1.3310    4.4200 C.ar    1  LGD1       -0.0029
     19  C19       -0.3150   -2.4100    5.3350 C.ar    1  LGD1       -0.0029
     20  C20       -0.5430   -0.6850    3.7060 C.ar    1  LGD1        0.1271
     21  C21        0.8170   -0.4950    3.6650 C.ar    1  LGD1        0.0199
     22  C22       -1.1650   -1.6490    4.5240 C.ar    1  LGD1        0.0199
     23  C23       -0.8540   -1.1320    0.5580 C.ar    1  LGD1        0.2125
     24  C24       -1.0730   -2.2720   -0.2990 C.ar    1  LGD1        0.2327
     25  C25       -0.1680   -2.7770   -1.2000 C.ar    1  LGD1        0.2651
     26  C26        1.2130   -1.0500   -0.5770 C.ar    1  LGD1        0.2028
     27  C27       -2.5840   -3.6540    1.0820 C.ar    1  LGD1        0.1793
     28  C28        2.6530   -0.4390   -0.6690 C.ar    1  LGD1        0.1990
     29  C29        0.2780   -4.5800   -2.8690 C.3     1  LGD1        0.2426
     30  C30       -1.6080   -4.3260    1.8340 C.ar    1  LGD1        0.1730
     31  C31       -3.9050   -3.7190    1.4640 C.ar    1  LGD1        0.0406
     32  C32       -1.9550   -5.0070    2.9750 C.ar    1  LGD1        0.0401
     33  C33        1.2690   -5.3310   -1.9830 C.3     1  LGD1        0.2292
     34  C34       -4.3340   -4.4310    2.5710 C.ar    1  LGD1        0.0033
     35  C35       -3.3070   -5.0480    3.3860 C.ar    1  LGD1        0.0033
     36  C36        4.9310   -0.5370   -0.9630 C.ar    1  LGD1        0.1023
     37  C37        3.8730    1.5130   -0.2050 C.ar    1  LGD1        0.1023
     38  C38        4.9600    0.8420   -0.7410 C.ar    1  LGD1        0.0414
     39  C39        0.7180   -3.8910    2.1960 C.3     1  LGD1        0.2526
@<TRIPOS>BOND
     1    33     7    1
     2    33    29    1
     3     5    29    1
     4     5    25    1
     5    10    25   ar
     6    10    26   ar
     7    36    11   ar
     8    36    38   ar
     9    11    28   ar
    10    25    24   ar
    11    38    37   ar
    12    34    31   ar
    13    34    35   ar
    14    28    26    1
    15    28    12   ar
    16    26     9   ar
    17    31    27   ar
    18    37    12   ar
    19    24     4    1
    20    24    23   ar
    21     4    27    1
    22    27    30   ar
    23    35    32   ar
    24    15    13    1
    25     9    23   ar
    26    23     8    1
    27    30    32   ar
    28    30     6    1
    29     6    39    1
    30     8     1    1
    31    18    14   ar
    32    18    21   ar
    33    13    14    1
    34    13    17    1
    35    13    16    1
    36    14    19   ar
    37    21    20   ar
    38    20     1    1
    39    20    22   ar
    40    19    22   ar
    41     1     2    2
    42     1     3    2
@<TRIPOS>MOLECULE
108002
 38 42 0 0 0
SMALL
GASTEIGER

@<TRIPOS>ATOM
      1 O           0.8862   -5.8321    1.0373 O.co2   1  LIG11      -0.5495
      2 O           2.8592   -4.8650    1.6137 O.co2   1  LIG11      -0.5495
      3 O          -1.2171   -0.3497    6.4712 O.3     1  LIG11      -0.4920
      4 O          -1.6629   -5.4812    4.8241 O.3     1  LIG11      -0.4858
      5 O           0.7082    0.7575   -1.5032 O.3     1  LIG11      -0.4526
      6 O           2.9621    0.6939   -2.3659 O.3     1  LIG11      -0.4526
      7 O          -5.5151   -5.1584    1.7881 O.3     1  LIG11      -0.4950
      8 O          -1.7159   -7.5465    7.5488 O.co2   1  LIG11      -0.5463
      9 O          -1.5012   -5.2876    7.7825 O.co2   1  LIG11      -0.5463
     10 C           0.8373   -3.6202    1.8633 C.3     1  LIG11       0.0203
     11 C          -0.0925   -3.8295    3.1054 C.3     1  LIG11       0.0218
     12 C           1.7837   -2.4420    2.1836 C.3     1  LIG11       0.0184
     13 C           0.0096   -2.4785    3.7978 C.ar    1  LIG11      -0.0320
     14 C           1.0369   -1.6998    3.2639 C.ar    1  LIG11      -0.0353
     15 C           2.1129   -1.5935    0.9592 C.ar    1  LIG11      -0.0356
     16 C          -1.5484   -4.2087    2.8069 C.ar    1  LIG11       0.0026
     17 C           1.5994   -4.8978    1.5047 C.2     1  LIG11       0.0466
     18 C          -0.7281   -2.0109    4.8826 C.ar    1  LIG11      -0.0159
     19 C           1.3308   -0.4438    3.7819 C.ar    1  LIG11      -0.0542
     20 C          -0.4405   -0.7489    5.4132 C.ar    1  LIG11       0.1208
     21 C          -2.2836   -5.0578    3.6653 C.ar    1  LIG11       0.1283
     22 C           1.1423   -0.7931    0.3282 C.ar    1  LIG11      -0.0124
     23 C           3.4242   -1.6349    0.4291 C.ar    1  LIG11      -0.0543
     24 C           0.5721    0.0401    4.8480 C.ar    1  LIG11      -0.0196
     25 C          -2.2180   -3.6611    1.6937 C.ar    1  LIG11      -0.0510
     26 C           1.5181   -0.0618   -0.7783 C.ar    1  LIG11       0.1665
     27 C           3.7796   -0.8762   -0.6903 C.ar    1  LIG11      -0.0159
     28 C          -3.6063   -5.4116    3.3305 C.ar    1  LIG11       0.0221
     29 C          -3.5370   -4.0024    1.3906 C.ar    1  LIG11      -0.0194
     30 C           2.8023   -0.0990   -1.2708 C.ar    1  LIG11       0.1662
     31 C          -4.2339   -4.8924    2.1967 C.ar    1  LIG11       0.1236
     32 C          -0.5389    0.4568    7.4344 C.3     1  LIG11       0.0893
     33 C           1.6184    1.1886   -2.5315 C.3     1  LIG11       0.2332
     34 C          -2.4974   -6.1561    5.7892 C.3     1  LIG11       0.1287
     35 C          -1.3408    0.4276    8.7318 C.3     1  LIG11      -0.0215
     36 C          -1.7933   -6.3433    7.1477 C.2     1  LIG11       0.0789
     37 C          -6.2341   -6.1172    2.5521 C.3     1  LIG11       0.0788
     38 C          -0.7102    1.3035    9.8004 C.3     1  LIG11      -0.0622
@<TRIPOS>BOND
     1     1    17   ar
     2     2    17   ar
     3     3    20    1
     4     3    32    1
     5     4    21    1
     6     4    34    1
     7     5    26    1
     8     5    33    1
     9     6    30    1
    10     6    33    1
    11     7    31    1
    12     7    37    1
    13     8    36   ar
    14     9    36   ar
    15    10    11    1
    16    10    12    1
    17    10    17    1
    18    11    13    1
    19    11    16    1
    20    12    14    1
    21    12    15    1
    22    13    14   ar
    23    13    18   ar
    24    14    19   ar
    25    15    22   ar
    26    15    23   ar
    27    16    21   ar
    28    16    25   ar
    29    18    20   ar
    30    19    24   ar
    31    20    24   ar
    32    21    28   ar
    33    22    26   ar
    34    23    27   ar
    35    25    29   ar
    36    26    30   ar
    37    27    30   ar
    38    28    31   ar
    39    29    31   ar
    40    32    35    1
    41    34    36    1
    42    35    38    1
