@<TRIPOS>MOLECULE
BOSENTAN_50CONFORMERS.pdb
 39 42 0 0 0
SMALL
GASTEIGER

@<TRIPOS>ATOM
      1  S1        -1.4490   -0.0940    2.9560 S.O2    1  LGD1        0.0943
      2  O2        -0.6240    1.1470    2.7880 O.2     1  LGD1       -0.1483
      3  O3        -2.8460   -0.0310    3.4150 O.2     1  LGD1       -0.1483
      4  O4        -2.3840   -2.7850   -0.2570 O.3     1  LGD1       -0.4427
      5  O5        -0.5460   -3.7510   -2.1030 O.3     1  LGD1       -0.4552
      6  O6        -0.6450   -4.8040    0.7750 O.3     1  LGD1       -0.4684
      7  O7        -0.8830   -5.5220   -4.4490 O.3     1  LGD1       -0.2162
      8  N8        -1.7980   -0.6580    1.3530 N.pl3   1  LGD1       -0.0737
      9  N9         0.4100   -0.5470    0.4560 N.ar    1  LGD1       -0.2027
     10  N10        0.9550   -2.1210   -1.3620 N.ar    1  LGD1       -0.1866
     11  N11        2.6830    0.7690    0.1300 N.ar    1  LGD1       -0.2224
     12  N12        3.2310   -0.6310   -1.8090 N.ar    1  LGD1       -0.2224
     13  C13        1.2750   -4.7890    5.8630 C.3     1  LGD1        0.0189
     14  C14        0.5530   -3.7060    5.0390 C.ar    1  LGD1       -0.0227
     15  C15        2.5330   -5.3980    5.1060 C.3     1  LGD1        0.0044
     16  C16        0.4010   -5.9280    6.3500 C.3     1  LGD1        0.0044
     17  C17        1.9010   -4.1580    7.1590 C.3     1  LGD1        0.0044
     18  C18       -0.8360   -3.7170    4.7560 C.ar    1  LGD1       -0.0029
     19  C19        1.3090   -2.5880    4.6180 C.ar    1  LGD1       -0.0029
     20  C20       -0.6790   -1.5150    3.7350 C.ar    1  LGD1        0.1271
     21  C21       -1.4510   -2.6580    4.0750 C.ar    1  LGD1        0.0199
     22  C22        0.6770   -1.5660    3.9610 C.ar    1  LGD1        0.0199
     23  C23       -0.8380   -1.1710    0.5840 C.ar    1  LGD1        0.2125
     24  C24       -1.1500   -2.2740   -0.3100 C.ar    1  LGD1        0.2327
     25  C25       -0.2310   -2.7580   -1.2060 C.ar    1  LGD1        0.2651
     26  C26        1.1800   -0.9970   -0.6040 C.ar    1  LGD1        0.2028
     27  C27       -2.7950   -3.6620    0.7790 C.ar    1  LGD1        0.1793
     28  C28        2.5110   -0.2550   -0.7330 C.ar    1  LGD1        0.1990
     29  C29        0.4960   -4.6320   -2.5040 C.3     1  LGD1        0.2426
     30  C30       -1.8980   -4.5650    1.3390 C.ar    1  LGD1        0.1730
     31  C31       -4.1250   -3.6780    1.1760 C.ar    1  LGD1        0.0406
     32  C32       -2.4090   -5.4000    2.3060 C.ar    1  LGD1        0.0401
     33  C33       -0.1650   -5.8480   -3.1830 C.3     1  LGD1        0.2292
     34  C34       -4.6090   -4.5870    2.0420 C.ar    1  LGD1        0.0033
     35  C35       -3.7710   -5.4980    2.6050 C.ar    1  LGD1        0.0033
     36  C36        3.9140    1.3700    0.0300 C.ar    1  LGD1        0.1023
     37  C37        4.4240    0.0080   -1.9080 C.ar    1  LGD1        0.1023
     38  C38        4.7880    0.9720   -0.9580 C.ar    1  LGD1        0.0414
     39  C39        0.4930   -4.7900    1.6810 C.3     1  LGD1        0.2526
@<TRIPOS>BOND
     1    33     7    1
     2    33    29    1
     3     5    29    1
     4     5    25    1
     5    10    25   ar
     6    10    26   ar
     7    36    11   ar
     8    36    38   ar
     9    11    28   ar
    10    25    24   ar
    11    38    37   ar
    12    34    31   ar
    13    34    35   ar
    14    28    26    1
    15    28    12   ar
    16    26     9   ar
    17    31    27   ar
    18    37    12   ar
    19    24     4    1
    20    24    23   ar
    21     4    27    1
    22    27    30   ar
    23    35    32   ar
    24    15    13    1
    25     9    23   ar
    26    23     8    1
    27    30    32   ar
    28    30     6    1
    29     6    39    1
    30     8     1    1
    31    18    14   ar
    32    18    21   ar
    33    13    14    1
    34    13    17    1
    35    13    16    1
    36    14    19   ar
    37    21    20   ar
    38    20     1    1
    39    20    22   ar
    40    19    22   ar
    41     1     2    2
    42     1     3    2
@<TRIPOS>MOLECULE
9939443
 43 47 0 0 0
SMALL
GASTEIGER

@<TRIPOS>ATOM
      1 S          -1.0383    0.2238    2.7972 S.O2    1  LIG11       0.0908
      2 O          -2.4135   -2.4902    0.2303 O.3     1  LIG11      -0.4435
      3 O          -2.2708    0.6585    3.4345 O.2     1  LIG11      -0.1484
      4 O           0.1206    1.0921    2.8365 O.2     1  LIG11      -0.1484
      5 O          -0.8057   -3.8512   -1.5842 O.3     1  LIG11      -0.4715
      6 O          -5.0220   -2.9085    1.1835 O.3     1  LIG11      -0.4914
      7 O          -0.4632   -5.1942   -4.9569 O.3     1  LIG11      -0.3917
      8 N          -1.4471   -0.0096    1.1635 N.pl3   1  LIG11      -0.1950
      9 N           0.4945   -1.9546    2.9468 N.ar    1  LIG11      -0.2351
     10 N           0.5913   -0.4420    0.1658 N.ar    1  LIG11      -0.2073
     11 N           0.9703   -2.3774   -1.1581 N.ar    1  LIG11      -0.1899
     12 N           5.4953   -0.0994   -1.0536 N.ar    1  LIG11      -0.2552
     13 N           5.7380   -3.3543   -2.7385 N.ar    1  LIG11      -0.5621
     14 N           7.3075   -1.7439   -2.4828 N.ar    1  LIG11      -0.1535
     15 N           6.9390   -3.6703   -3.2441 N.ar    1  LIG11      -0.3597
     16 N           7.8955   -2.7482   -3.1175 N.ar    1  LIG11      -0.0878
     17 C           0.9023   -4.9423    5.2519 C.3     1  LIG11      -0.0201
     18 C           0.3095   -3.6758    4.6615 C.ar    1  LIG11      -0.0266
     19 C           2.2857   -4.6644    5.8538 C.3     1  LIG11      -0.0586
     20 C           0.0276   -5.6399    6.2994 C.3     1  LIG11      -0.0586
     21 C          -0.5912   -1.3586    3.5024 C.ar    1  LIG11       0.1969
     22 C          -0.8208   -3.0291    5.1771 C.ar    1  LIG11      -0.0535
     23 C           0.9137   -3.0914    3.5437 C.ar    1  LIG11       0.0332
     24 C          -1.2839   -1.8513    4.5948 C.ar    1  LIG11      -0.0160
     25 C          -0.6265   -0.9218    0.4415 C.ar    1  LIG11       0.1882
     26 C          -1.1299   -2.1149   -0.0259 C.ar    1  LIG11       0.2307
     27 C          -0.2988   -2.7559   -0.9154 C.ar    1  LIG11       0.2641
     28 C           1.3811   -1.2386   -0.5721 C.ar    1  LIG11       0.1659
     29 C           2.7882   -0.8406   -0.7489 C.ar    1  LIG11       0.0227
     30 C          -2.6572   -3.5751    1.0499 C.ar    1  LIG11       0.1702
     31 C           3.7000   -1.6577   -1.4381 C.ar    1  LIG11      -0.0252
     32 C           3.2839    0.3564   -0.2139 C.ar    1  LIG11      -0.0328
     33 C          -0.1138   -4.1664   -2.7933 C.3     1  LIG11       0.1143
     34 C          -3.9833   -3.7554    1.4789 C.ar    1  LIG11       0.1621
     35 C           5.0311   -1.2656   -1.5671 C.ar    1  LIG11       0.0708
     36 C          -1.6972   -4.5248    1.4271 C.ar    1  LIG11      -0.0157
     37 C           4.6181    0.6795   -0.3911 C.ar    1  LIG11       0.0289
     38 C          -1.1010   -4.8484   -3.7348 C.3     1  LIG11       0.0783
     39 C          -4.3430   -4.8944    2.2074 C.ar    1  LIG11      -0.0163
     40 C          -2.0585   -5.6499    2.1756 C.ar    1  LIG11      -0.0581
     41 C          -3.3822   -5.8397    2.5582 C.ar    1  LIG11      -0.0581
     42 C           5.9995   -2.1194   -2.2580 C.ar    1  LIG11       0.0207
     43 C          -4.7624   -1.5442    1.5138 C.3     1  LIG11       0.0790
@<TRIPOS>BOND
     1     1    21    1
     2     1     8    1
     3     1     4    2
     4     1     3    2
     5     2    26    1
     6     2    30    1
     7     5    27    1
     8     5    33    1
     9     6    34    1
    10     6    43    1
    11     7    38    1
    12     8    25    1
    13     9    23   ar
    14     9    21   ar
    15    10    25   ar
    16    10    28   ar
    17    11    27   ar
    18    11    28   ar
    19    12    37   ar
    20    12    35   ar
    21    13    15   ar
    22    13    42   ar
    23    14    42   ar
    24    14    16   ar
    25    15    16   ar
    26    17    18    1
    27    17    20    1
    28    17    19    1
    29    18    23   ar
    30    18    22   ar
    31    21    24   ar
    32    22    24   ar
    33    25    26   ar
    34    26    27   ar
    35    28    29    1
    36    29    31   ar
    37    29    32   ar
    38    30    36   ar
    39    30    34   ar
    40    31    35   ar
    41    32    37   ar
    42    33    38    1
    43    34    39   ar
    44    35    42    1
    45    36    40   ar
    46    39    41   ar
    47    40    41   ar
