@<TRIPOS>MOLECULE
BOSENTAN_50CONFORMERS.pdb
 39 42 0 0 0
SMALL
GASTEIGER

@<TRIPOS>ATOM
      1  S1        -2.2170   -1.4360    2.9500 S.O2    1  LGD1        0.0943
      2  O2        -0.9660   -2.2360    3.2690 O.2     1  LGD1       -0.1483
      3  O3        -2.8010   -0.3410    3.7450 O.2     1  LGD1       -0.1483
      4  O4        -2.4460   -2.7320   -0.2070 O.3     1  LGD1       -0.4427
      5  O5        -0.5720   -3.7820   -1.9670 O.3     1  LGD1       -0.4552
      6  O6        -0.7100   -4.5350    1.3670 O.3     1  LGD1       -0.4684
      7  O7        -0.4040   -6.1780   -3.3780 O.3     1  LGD1       -0.2162
      8  N8        -1.8490   -0.6770    1.4180 N.pl3   1  LGD1       -0.0737
      9  N9         0.3700   -0.6190    0.4290 N.ar    1  LGD1       -0.2027
     10  N10        1.0340   -2.0680   -1.4430 N.ar    1  LGD1       -0.1866
     11  N11        2.4720    0.5280   -1.9330 N.ar    1  LGD1       -0.2224
     12  N12        3.3730   -0.3060    0.1550 N.ar    1  LGD1       -0.2224
     13  C13       -7.1830   -4.8760    2.4940 C.3     1  LGD1        0.0189
     14  C14       -5.9610   -4.0200    2.6740 C.ar    1  LGD1       -0.0227
     15  C15       -6.9930   -6.3660    2.8290 C.3     1  LGD1        0.0044
     16  C16       -7.8360   -4.8520    1.1240 C.3     1  LGD1        0.0044
     17  C17       -8.3100   -4.3400    3.4540 C.3     1  LGD1        0.0044
     18  C18       -5.9450   -2.7550    2.0980 C.ar    1  LGD1       -0.0029
     19  C19       -4.7930   -4.5340    3.1990 C.ar    1  LGD1       -0.0029
     20  C20       -3.6420   -2.4430    2.6730 C.ar    1  LGD1        0.1271
     21  C21       -4.7990   -1.9800    2.0110 C.ar    1  LGD1        0.0199
     22  C22       -3.6910   -3.7340    3.2260 C.ar    1  LGD1        0.0199
     23  C23       -0.8410   -1.1820    0.5490 C.ar    1  LGD1        0.2125
     24  C24       -1.1430   -2.1960   -0.3250 C.ar    1  LGD1        0.2327
     25  C25       -0.2090   -2.6940   -1.2770 C.ar    1  LGD1        0.2651
     26  C26        1.1910   -1.0590   -0.5760 C.ar    1  LGD1        0.2028
     27  C27       -2.7660   -4.0460    0.0750 C.ar    1  LGD1        0.1793
     28  C28        2.4090   -0.1840   -0.8270 C.ar    1  LGD1        0.1990
     29  C29       -0.0890   -3.7740   -3.3440 C.3     1  LGD1        0.2426
     30  C30       -1.8930   -4.9720    0.7730 C.ar    1  LGD1        0.1730
     31  C31       -3.9820   -4.5050   -0.4520 C.ar    1  LGD1        0.0406
     32  C32       -2.3610   -6.2780    1.0560 C.ar    1  LGD1        0.0401
     33  C33       -0.6640   -4.9630   -4.0230 C.3     1  LGD1        0.2292
     34  C34       -4.3750   -5.8520   -0.2430 C.ar    1  LGD1        0.0033
     35  C35       -3.5720   -6.7140    0.5200 C.ar    1  LGD1        0.0033
     36  C36        3.5190    1.3820   -2.0300 C.ar    1  LGD1        0.1023
     37  C37        4.4510    0.5710    0.0700 C.ar    1  LGD1        0.1023
     38  C38        4.4350    1.4540   -0.9910 C.ar    1  LGD1        0.0414
     39  C39        0.3960   -5.3290    0.8350 C.3     1  LGD1        0.2526
@<TRIPOS>BOND
     1    33     7    1
     2    33    29    1
     3     5    29    1
     4     5    25    1
     5    10    25   ar
     6    10    26   ar
     7    36    11   ar
     8    36    38   ar
     9    11    28   ar
    10    25    24   ar
    11    38    37   ar
    12    34    31   ar
    13    34    35   ar
    14    28    26    1
    15    28    12   ar
    16    26     9   ar
    17    31    27   ar
    18    37    12   ar
    19    24     4    1
    20    24    23   ar
    21     4    27    1
    22    27    30   ar
    23    35    32   ar
    24    15    13    1
    25     9    23   ar
    26    23     8    1
    27    30    32   ar
    28    30     6    1
    29     6    39    1
    30     8     1    1
    31    18    14   ar
    32    18    21   ar
    33    13    14    1
    34    13    17    1
    35    13    16    1
    36    14    19   ar
    37    21    20   ar
    38    20     1    1
    39    20    22   ar
    40    19    22   ar
    41     1     2    2
    42     1     3    2
@<TRIPOS>MOLECULE
01178588C
 32 34 0 0 0
SMALL
GASTEIGER

@<TRIPOS>ATOM
      1 S          -0.9982   -1.4646    3.0132 S.O2    1  LIG11       0.0756
      2 C          -1.2078   -1.8728    1.3112 C.ar    1  LIG11       0.1344
      3 N           0.5297   -0.7413    3.1358 N.pl3   1  LIG11      -0.1951
      4 O          -0.8297   -2.7100    3.7345 O.2     1  LIG11      -0.1499
      5 O          -1.9913   -0.4847    3.3928 O.2     1  LIG11      -0.1499
      6 C          -2.4444   -2.3052    0.8331 C.ar    1  LIG11       0.0975
      7 C          -0.1525   -1.7021    0.4050 C.ar    1  LIG11      -0.0315
      8 C           0.5366    0.6668    2.9634 C.ar    1  LIG11       0.2006
      9 C          -3.6246   -2.6747    1.6375 C.ar    1  LIG11       0.0023
     10 N          -2.6487   -2.4973   -0.5062 N.ar    1  LIG11      -0.2530
     11 C          -0.3621   -1.9174   -0.9518 C.ar    1  LIG11      -0.0417
     12 C           0.3467    1.5580    4.0263 C.ar    1  LIG11       0.2574
     13 N           0.7094    1.0775    1.6912 N.ar    1  LIG11      -0.2325
     14 C          -3.5720   -3.6970    2.5981 C.ar    1  LIG11      -0.0523
     15 C          -4.8788   -2.0967    1.3749 C.ar    1  LIG11      -0.0523
     16 C          -1.6228   -2.2993   -1.3577 C.ar    1  LIG11       0.0284
     17 N           0.3889    2.9025    3.8571 N.ar    1  LIG11      -0.2137
     18 O           0.2145    1.0345    5.2979 O.3     1  LIG11      -0.4773
     19 C           0.7234    2.4216    1.5274 C.ar    1  LIG11       0.0510
     20 C          -4.7211   -4.1148    3.2784 C.ar    1  LIG11      -0.0579
     21 C          -6.0332   -2.5230    2.0440 C.ar    1  LIG11      -0.0579
     22 C           0.5750    3.3235    2.5810 C.ar    1  LIG11       0.0602
     23 C          -0.4723    1.9289    6.1685 C.3     1  LIG11       0.0805
     24 C          -5.9664   -3.5449    2.9956 C.ar    1  LIG11      -0.0465
     25 C           0.6414    4.7975    2.3309 C.3     1  LIG11      -0.0208
     26 C          -7.2167   -4.0533    3.6882 C.3     1  LIG11      -0.0174
     27 C          -7.9576   -5.2096    2.9753 C.3     1  LIG11       0.0085
     28 C          -9.0882   -5.5445    3.9903 C.2     1  LIG11       0.0477
     29 C          -8.5820   -4.7765    1.6436 C.3     1  LIG11      -0.0544
     30 C          -7.0696   -6.4380    2.7424 C.3     1  LIG11      -0.0544
     31 O         -10.1219   -4.8177    3.9229 O.co2   1  LIG11      -0.5493
     32 O          -8.8455   -6.4866    4.7985 O.co2   1  LIG11      -0.5493
@<TRIPOS>BOND
     1     1     5    2
     2     1     4    2
     3     1     3    1
     4     1     2    1
     5     2     6   ar
     6     2     7   ar
     7     3     8    1
     8     6    10   ar
     9     6     9    1
    10     7    11   ar
    11     8    12   ar
    12     8    13   ar
    13     9    14   ar
    14     9    15   ar
    15    10    16   ar
    16    11    16   ar
    17    12    17   ar
    18    12    18    1
    19    13    19   ar
    20    14    20   ar
    21    15    21   ar
    22    17    22   ar
    23    18    23    1
    24    19    22   ar
    25    20    24   ar
    26    21    24   ar
    27    22    25    1
    28    24    26    1
    29    26    27    1
    30    27    30    1
    31    27    29    1
    32    27    28    1
    33    28    32   ar
    34    28    31   ar
