@<TRIPOS>MOLECULE
BOSENTAN_50CONFORMERS.pdb
 39 42 0 0 0
SMALL
GASTEIGER

@<TRIPOS>ATOM
      1  S1        -2.3120   -1.6410    2.7370 S.O2    1  LGD1        0.0943
      2  O2        -1.5620   -2.9080    2.6480 O.2     1  LGD1       -0.1483
      3  O3        -2.0480   -0.8660    3.9410 O.2     1  LGD1       -0.1483
      4  O4        -2.3080   -2.9470   -0.1270 O.3     1  LGD1       -0.4427
      5  O5        -0.4840   -3.8300   -2.0350 O.3     1  LGD1       -0.4552
      6  O6        -4.3250   -4.9400   -0.1280 O.3     1  LGD1       -0.4684
      7  O7        -2.1120   -5.6410   -3.6980 O.3     1  LGD1       -0.2162
      8  N8        -1.7460   -0.6930    1.5320 N.pl3   1  LGD1       -0.0737
      9  N9         0.3320   -0.5290    0.3740 N.ar    1  LGD1       -0.2027
     10  N10        0.9930   -2.1350   -1.3510 N.ar    1  LGD1       -0.1866
     11  N11        2.7030    0.9770   -0.1940 N.ar    1  LGD1       -0.2224
     12  N12        3.6730   -1.0500   -1.0970 N.ar    1  LGD1       -0.2224
     13  C13       -8.3210   -1.4920    1.9850 C.3     1  LGD1        0.0189
     14  C14       -6.7870   -1.4720    2.0040 C.ar    1  LGD1       -0.0227
     15  C15       -8.9170   -2.6520    2.8130 C.3     1  LGD1        0.0044
     16  C16       -8.8250   -1.7270    0.5110 C.3     1  LGD1        0.0044
     17  C17       -8.9520   -0.1210    2.4900 C.3     1  LGD1        0.0044
     18  C18       -6.0720   -0.2770    2.1190 C.ar    1  LGD1       -0.0029
     19  C19       -6.0790   -2.7020    2.0660 C.ar    1  LGD1       -0.0029
     20  C20       -4.0760   -1.5540    2.4260 C.ar    1  LGD1        0.1271
     21  C21       -4.7120   -0.2910    2.3860 C.ar    1  LGD1        0.0199
     22  C22       -4.7160   -2.7480    2.2750 C.ar    1  LGD1        0.0199
     23  C23       -0.8670   -1.1610    0.4830 C.ar    1  LGD1        0.2125
     24  C24       -1.1980   -2.1910   -0.3690 C.ar    1  LGD1        0.2327
     25  C25       -0.2770   -2.6830   -1.3030 C.ar    1  LGD1        0.2651
     26  C26        1.2290   -1.0550   -0.5230 C.ar    1  LGD1        0.2028
     27  C27       -3.6030   -2.7210   -0.7440 C.ar    1  LGD1        0.1793
     28  C28        2.6120   -0.3340   -0.6040 C.ar    1  LGD1        0.1990
     29  C29       -0.8330   -3.6410   -3.4550 C.3     1  LGD1        0.2426
     30  C30       -4.5790   -3.7080   -0.7380 C.ar    1  LGD1        0.1730
     31  C31       -3.8780   -1.5100   -1.3650 C.ar    1  LGD1        0.0406
     32  C32       -5.8770   -3.4180   -1.2680 C.ar    1  LGD1        0.0401
     33  C33       -1.0170   -4.9460   -4.2160 C.3     1  LGD1        0.2292
     34  C34       -5.1320   -1.2460   -1.8500 C.ar    1  LGD1        0.0033
     35  C35       -6.1880   -2.1660   -1.7110 C.ar    1  LGD1        0.0033
     36  C36        3.8760    1.6480   -0.2450 C.ar    1  LGD1        0.1023
     37  C37        4.8630   -0.3620   -1.2110 C.ar    1  LGD1        0.1023
     38  C38        4.9200    0.9440   -0.7790 C.ar    1  LGD1        0.0414
     39  C39       -4.3840   -6.1090   -0.9810 C.3     1  LGD1        0.2526
@<TRIPOS>BOND
     1    33     7    1
     2    33    29    1
     3     5    29    1
     4     5    25    1
     5    10    25   ar
     6    10    26   ar
     7    36    11   ar
     8    36    38   ar
     9    11    28   ar
    10    25    24   ar
    11    38    37   ar
    12    34    31   ar
    13    34    35   ar
    14    28    26    1
    15    28    12   ar
    16    26     9   ar
    17    31    27   ar
    18    37    12   ar
    19    24     4    1
    20    24    23   ar
    21     4    27    1
    22    27    30   ar
    23    35    32   ar
    24    15    13    1
    25     9    23   ar
    26    23     8    1
    27    30    32   ar
    28    30     6    1
    29     6    39    1
    30     8     1    1
    31    18    14   ar
    32    18    21   ar
    33    13    14    1
    34    13    17    1
    35    13    16    1
    36    14    19   ar
    37    21    20   ar
    38    20     1    1
    39    20    22   ar
    40    19    22   ar
    41     1     2    2
    42     1     3    2
@<TRIPOS>MOLECULE
01012527H
 38 40 0 0 0
SMALL
GASTEIGER

@<TRIPOS>ATOM
      1 C          -8.1545   -0.5057   -1.3397 C.3     1  LIG11       0.0531
      2 C          -9.2745   -1.3791   -0.7928 C.3     1  LIG11      -0.0111
      3 C          -7.3756   -1.3119   -2.3696 C.3     1  LIG11       0.0375
      4 C          -8.9936    0.6041   -1.9626 C.2     1  LIG11       0.0509
      5 N          -9.4426   -2.4969   -1.8533 N.3     1  LIG11       0.2448
      6 C          -9.0308   -2.0949    0.5553 C.3     1  LIG11      -0.0039
      7 C          -6.1051   -1.9081   -1.7747 C.ar    1  LIG11      -0.0313
      8 C          -8.3947   -2.2907   -2.9413 C.3     1  LIG11      -0.0234
      9 O          -9.3162    1.5181   -1.1641 O.co2   1  LIG11      -0.5493
     10 O          -9.3631    0.4003   -3.1515 O.co2   1  LIG11      -0.5493
     11 C         -10.8651   -2.5066   -2.4242 C.3     1  LIG11       0.0465
     12 C          -9.0868   -1.2728    1.8780 C.3     1  LIG11      -0.0298
     13 C          -6.0535   -3.1531   -1.1340 C.ar    1  LIG11      -0.0122
     14 C          -4.9200   -1.1244   -1.8406 C.ar    1  LIG11      -0.0124
     15 C         -11.1283   -3.6924   -3.3629 C.2     1  LIG11       0.2608
     16 C          -9.2394   -2.2547    3.0861 C.3     1  LIG11      -0.0479
     17 C          -7.8190   -0.4235    2.0747 C.3     1  LIG11      -0.0596
     18 C         -10.3116   -0.3376    1.9051 C.3     1  LIG11      -0.0596
     19 C          -4.8661   -3.5369   -0.5431 C.ar    1  LIG11       0.1702
     20 C          -3.7117   -1.5613   -1.2827 C.ar    1  LIG11       0.1656
     21 N         -12.4437   -4.0197   -3.6770 N.am    1  LIG11      -0.2971
     22 O         -10.1730   -4.3423   -3.7993 O.2     1  LIG11      -0.2697
     23 C          -8.1389   -3.3128    3.2314 C.3     1  LIG11      -0.0554
     24 C          -3.7293   -2.7667   -0.6090 C.ar    1  LIG11       0.2075
     25 O          -4.6813   -4.6849    0.1647 O.3     1  LIG11      -0.4525
     26 O          -2.5284   -0.8836   -1.3193 O.3     1  LIG11      -0.4913
     27 C         -13.6318   -3.3880   -3.0887 C.3     1  LIG11       0.0148
     28 C         -12.6764   -5.1383   -4.5989 C.3     1  LIG11       0.0148
     29 C          -8.3755   -4.1842    4.4574 C.3     1  LIG11      -0.0653
     30 O          -2.6829   -3.3463    0.0444 O.3     1  LIG11      -0.4489
     31 C          -3.3086   -4.5247    0.5817 C.3     1  LIG11       0.2334
     32 C          -2.3994    0.0967   -2.3428 C.3     1  LIG11       0.0790
     33 C         -13.9376   -1.9827   -3.6143 C.3     1  LIG11      -0.0374
     34 C         -12.8523   -6.4890   -3.8919 C.3     1  LIG11      -0.0374
     35 C         -14.1493   -1.9252   -5.1264 C.3     1  LIG11      -0.0545
     36 C         -11.5561   -7.0300   -3.2830 C.3     1  LIG11      -0.0545
     37 C         -14.4656   -0.5083   -5.5821 C.3     1  LIG11      -0.0652
     38 C         -11.7258   -8.4425   -2.7472 C.3     1  LIG11      -0.0652
@<TRIPOS>BOND
     1     1     2    1
     2     1     3    1
     3     1     4    1
     4     2     5    1
     5     2     6    1
     6     3     8    1
     7     3     7    1
     8     4    10   ar
     9     4     9   ar
    10     5     8    1
    11     5    11    1
    12     6    12    1
    13     7    14   ar
    14     7    13   ar
    15    11    15    1
    16    12    18    1
    17    12    17    1
    18    12    16    1
    19    13    19   ar
    20    14    20   ar
    21    15    22    2
    22    15    21   am
    23    16    23    1
    24    19    25    1
    25    19    24   ar
    26    20    24   ar
    27    20    26    1
    28    21    28    1
    29    21    27    1
    30    23    29    1
    31    24    30    1
    32    25    31    1
    33    26    32    1
    34    27    33    1
    35    28    34    1
    36    30    31    1
    37    33    35    1
    38    34    36    1
    39    35    37    1
    40    36    38    1
