@<TRIPOS>MOLECULE
BOSENTAN_50CONFORMERS.pdb
 39 42 0 0 0
SMALL
GASTEIGER

@<TRIPOS>ATOM
      1  S1        -1.3660   -0.1150    2.9650 S.O2    1  LGD1        0.0943
      2  O2        -0.3450    0.9870    2.7690 O.2     1  LGD1       -0.1483
      3  O3        -2.6900    0.1410    3.5490 O.2     1  LGD1       -0.1483
      4  O4        -2.4050   -2.8540   -0.1530 O.3     1  LGD1       -0.4427
      5  O5        -0.5460   -3.7560   -2.0460 O.3     1  LGD1       -0.4552
      6  O6        -0.8160   -5.0270    0.8790 O.3     1  LGD1       -0.4684
      7  O7        -0.5110   -6.7440   -2.2490 O.3     1  LGD1       -0.2162
      8  N8        -1.8210   -0.6980    1.4120 N.pl3   1  LGD1       -0.0737
      9  N9         0.4140   -0.5800    0.3940 N.ar    1  LGD1       -0.2027
     10  N10        0.9880   -2.0990   -1.3950 N.ar    1  LGD1       -0.1866
     11  N11        3.3950   -0.7920   -1.7030 N.ar    1  LGD1       -0.2224
     12  N12        2.9800    0.5030    0.3180 N.ar    1  LGD1       -0.2224
     13  C13        1.8080   -4.5960    5.8740 C.3     1  LGD1        0.0189
     14  C14        1.0040   -3.4660    5.1740 C.ar    1  LGD1       -0.0227
     15  C15        2.1120   -5.6800    4.8570 C.3     1  LGD1        0.0044
     16  C16        1.0630   -5.4280    7.0090 C.3     1  LGD1        0.0044
     17  C17        3.0620   -4.0440    6.5230 C.3     1  LGD1        0.0044
     18  C18       -0.3850   -3.2210    5.4020 C.ar    1  LGD1       -0.0029
     19  C19        1.6560   -2.6570    4.2610 C.ar    1  LGD1       -0.0029
     20  C20       -0.3940   -1.3840    3.8730 C.ar    1  LGD1        0.1271
     21  C21       -1.0570   -2.2030    4.7700 C.ar    1  LGD1        0.0199
     22  C22        0.9880   -1.5490    3.6490 C.ar    1  LGD1        0.0199
     23  C23       -0.8700   -1.1650    0.5100 C.ar    1  LGD1        0.2125
     24  C24       -1.1790   -2.2420   -0.2860 C.ar    1  LGD1        0.2327
     25  C25       -0.2200   -2.6970   -1.2090 C.ar    1  LGD1        0.2651
     26  C26        1.2150   -1.0410   -0.5730 C.ar    1  LGD1        0.2028
     27  C27       -2.8340   -3.5430    1.0090 C.ar    1  LGD1        0.1793
     28  C28        2.6270   -0.3960   -0.6610 C.ar    1  LGD1        0.1990
     29  C29        0.5950   -4.5440   -2.3930 C.3     1  LGD1        0.2426
     30  C30       -2.0200   -4.6020    1.5290 C.ar    1  LGD1        0.1730
     31  C31       -3.9100   -3.0570    1.7580 C.ar    1  LGD1        0.0406
     32  C32       -2.3750   -5.1750    2.7290 C.ar    1  LGD1        0.0401
     33  C33        0.0760   -5.8030   -3.1590 C.3     1  LGD1        0.2292
     34  C34       -4.2060   -3.5890    3.0330 C.ar    1  LGD1        0.0033
     35  C35       -3.4170   -4.6480    3.4780 C.ar    1  LGD1        0.0033
     36  C36        4.7210   -0.3690   -1.6230 C.ar    1  LGD1        0.1023
     37  C37        4.2420    1.0110    0.2880 C.ar    1  LGD1        0.1023
     38  C38        5.1370    0.5070   -0.6100 C.ar    1  LGD1        0.0414
     39  C39        0.4630   -4.7420    1.5850 C.3     1  LGD1        0.2526
@<TRIPOS>BOND
     1    33     7    1
     2    33    29    1
     3     5    29    1
     4     5    25    1
     5    10    25   ar
     6    10    26   ar
     7    36    11   ar
     8    36    38   ar
     9    11    28   ar
    10    25    24   ar
    11    38    37   ar
    12    34    31   ar
    13    34    35   ar
    14    28    26    1
    15    28    12   ar
    16    26     9   ar
    17    31    27   ar
    18    37    12   ar
    19    24     4    1
    20    24    23   ar
    21     4    27    1
    22    27    30   ar
    23    35    32   ar
    24    15    13    1
    25     9    23   ar
    26    23     8    1
    27    30    32   ar
    28    30     6    1
    29     6    39    1
    30     8     1    1
    31    18    14   ar
    32    18    21   ar
    33    13    14    1
    34    13    17    1
    35    13    16    1
    36    14    19   ar
    37    21    20   ar
    38    20     1    1
    39    20    22   ar
    40    19    22   ar
    41     1     2    2
    42     1     3    2
@<TRIPOS>MOLECULE
123882
 66 71 0 0 0
SMALL
GASTEIGER

@<TRIPOS>ATOM
      1 S          -2.6629   -5.3136    3.1538 S.2     3  UNK33      -0.0993
      2 O           3.8309   -2.0185   -4.8685 O.2     1  UNK11      -0.2755
      3 O           4.4636   -7.4774    3.9909 O.2     4  LEU44      -0.2738
      4 O           2.7661   -2.2327   -1.7088 O.2     1  UNK11      -0.2737
      5 O           3.7555   -4.4481    1.4933 O.2     5  TRP55      -0.2738
      6 O           5.8213   -2.4264   -0.1363 O.2     6  ASP66      -0.2738
      7 O           0.0383   -6.1514    3.6338 O.2     3  UNK33      -0.2734
      8 O           1.9217   -6.0658   -0.2831 O.2     2  ASP22      -0.2737
      9 OD1         8.2749   -5.6681    2.5903 O.co2   6  ASP66      -0.5497
     10 OD2         9.2666   -6.6015    0.7509 O.co2   6  ASP66      -0.5497
     11 OD1         0.2916   -7.7360   -2.4482 O.co2   2  ASP22      -0.5497
     12 OD2         2.1395   -6.8859   -3.5132 O.co2   2  ASP22      -0.5497
     13 N           4.5006   -3.5990   -6.3694 N.am    1  UNK11      -0.2984
     14 N           5.5985   -3.7332   -9.0455 N.pl3   1  UNK11      -0.3269
     15 N           5.4407   -4.1797   -1.5699 N.am    1  UNK11      -0.3020
     16 N           3.1790   -5.6086    3.8553 N.am    5  TRP55      -0.3022
     17 N           1.4667   -6.8319    2.0542 N.am    4  LEU44      -0.3022
     18 N           5.9789   -4.3524    2.0313 N.am    6  ASP66      -0.3021
     19 N           2.5300   -4.3699   -2.4613 N.am    2  ASP22      -0.3021
     20 N           0.1660   -4.7000    0.2710 N.am    3  UNK33      -0.2984
     21 NE1         1.8027   -1.0495    2.7848 N.ar    5  TRP55      -0.3604
     22 C           3.8801   -2.8435   -7.4597 C.3     1  UNK11       0.0304
     23 C           5.2691   -4.7847   -6.7729 C.3     1  UNK11       0.0304
     24 C           4.1651   -3.4331   -8.8516 C.3     1  UNK11       0.0280
     25 C           6.2570   -4.4357   -7.9084 C.3     1  UNK11       0.0280
     26 C           4.3872   -3.0955   -5.0803 C.2     1  UNK11       0.2179
     27 C           5.0116   -3.9192   -3.9700 C.3     1  UNK11       0.0510
     28 C           4.7680   -3.3412   -2.5740 C.3     1  UNK11       0.1076
     29 CA          2.2865   -7.7136    2.8913 C.3     4  LEU44       0.0997
     30 CB          2.7934   -8.8471    1.9730 C.3     4  LEU44      -0.0236
     31 CA          4.3153   -4.6856    3.8427 C.3     5  TRP55       0.1034
     32 C           6.4219   -2.8253   -9.7195 C.ar    1  UNK11       0.0298
     33 CG          3.6081   -9.9872    2.6088 C.3     4  LEU44      -0.0446
     34 CB          4.0212   -3.3776    4.5826 C.3     5  TRP55       0.0013
     35 C           3.4381   -6.9382    3.5797 C.2     4  LEU44       0.2340
     36 CA          6.3732   -4.6815    0.6603 C.3     6  ASP66       0.1045
     37 C           3.2646   -3.2389   -2.2136 C.2     1  UNK11       0.2344
     38 CG          2.9022   -2.5443    4.0226 C.ar    5  TRP55      -0.0201
     39 C           4.6423   -4.4702    2.3500 C.2     5  TRP55       0.2343
     40 C           5.8243   -3.6378   -0.3509 C.2     6  ASP66       0.2343
     41 CA          1.1628   -4.5300   -1.9966 C.3     2  ASP22       0.1045
     42 CD2         2.8377  -10.7214    3.7021 C.3     4  LEU44      -0.0626
     43 CD1         4.0484  -10.9730    1.5204 C.3     4  LEU44      -0.0626
     44 C          -0.5234   -5.5637    1.2471 C.3     3  UNK33       0.1311
     45 C           7.6304   -3.2688  -10.2834 C.ar    1  UNK11      -0.0407
     46 C           6.1058   -1.4691   -9.8833 C.ar    1  UNK11      -0.0407
     47 CD2         1.5111   -2.5878    4.3687 C.ar    5  TRP55       0.0029
     48 C           0.3502   -6.1376    2.4437 C.2     3  UNK33       0.2390
     49 CB          7.8874   -4.7163    0.4763 C.3     6  ASP66       0.0138
     50 CD1         3.0374   -1.5694    3.0534 C.ar    5  TRP55       0.0060
     51 CE2         0.8584   -1.6168    3.6068 C.ar    5  TRP55       0.0467
     52 C           1.1591   -5.1574   -0.5845 C.2     2  ASP22       0.2345
     53 CB          0.3725   -5.4346   -2.9364 C.3     2  ASP22       0.0138
     54 C           8.4777   -2.4043  -10.9860 C.ar    1  UNK11      -0.0600
     55 C           6.9533   -0.5949  -10.5749 C.ar    1  UNK11      -0.0600
     56 C          -1.8183   -4.8488    1.7152 C.ar    3  UNK33       0.0189
     57 CE3         0.7414   -3.3735    5.2491 C.ar    5  TRP55      -0.0523
     58 C           8.1378   -1.0642  -11.1311 C.ar    1  UNK11      -0.0616
     59 CZ2        -0.5149   -1.3636    3.7119 C.ar    5  TRP55      -0.0378
     60 CG          8.5295   -5.7760    1.3534 C.2     6  ASP66       0.0440
     61 CZ3        -0.6324   -3.1354    5.3664 C.ar    5  TRP55      -0.0611
     62 C          -2.5825   -3.8916    1.0510 C.ar    3  UNK33      -0.0493
     63 CH2        -1.2453   -2.1319    4.6216 C.ar    5  TRP55      -0.0598
     64 CG          1.0054   -6.8268   -2.9594 C.2     2  ASP22       0.0440
     65 C          -3.6638   -3.3816    1.8312 C.ar    3  UNK33      -0.0544
     66 C          -3.7624   -4.0211    3.0416 C.ar    3  UNK33      -0.0240
@<TRIPOS>BOND
     1     1    56   ar
     2     1    66   ar
     3     2    26    2
     4     3    35    2
     5     4    37    2
     6     5    39    2
     7     6    40    2
     8     7    48    2
     9     8    52    2
    10     9    60   ar
    11    10    60   ar
    12    11    64   ar
    13    12    64   ar
    14    13    22    1
    15    13    23    1
    16    14    24    1
    17    14    25    1
    18    14    32    1
    19    15    28    1
    20    15    40   am
    21    16    35   am
    22    16    31    1
    23    17    48   am
    24    17    29    1
    25    18    39   am
    26    18    36    1
    27    19    37   am
    28    19    41    1
    29    20    52   am
    30    20    44    1
    31    21    50   ar
    32    21    51   ar
    33    22    24    1
    34    23    25    1
    35    26    27    1
    36    26    13   am
    37    28    37    1
    38    28    27    1
    39    29    35    1
    40    29    30    1
    41    30    33    1
    42    31    39    1
    43    31    34    1
    44    32    45   ar
    45    32    46   ar
    46    33    43    1
    47    33    42    1
    48    34    38    1
    49    36    40    1
    50    36    49    1
    51    38    47   ar
    52    38    50   ar
    53    41    52    1
    54    41    53    1
    55    44    48    1
    56    44    56    1
    57    45    54   ar
    58    46    55   ar
    59    47    57   ar
    60    47    51   ar
    61    49    60    1
    62    51    59   ar
    63    53    64    1
    64    54    58   ar
    65    55    58   ar
    66    56    62   ar
    67    57    61   ar
    68    59    63   ar
    69    61    63   ar
    70    62    65   ar
    71    65    66   ar
