@<TRIPOS>MOLECULE
BOSENTAN_50CONFORMERS.pdb
 39 42 0 0 0
SMALL
GASTEIGER

@<TRIPOS>ATOM
      1  S1        -1.2950   -0.4150    3.0900 S.O2    1  LGD1        0.0943
      2  O2         0.0720    0.1150    3.1830 O.2     1  LGD1       -0.1483
      3  O3        -2.4760    0.3640    3.6460 O.2     1  LGD1       -0.1483
      4  O4        -2.4760   -2.7310   -0.2240 O.3     1  LGD1       -0.4427
      5  O5        -0.5110   -3.8390   -2.0590 O.3     1  LGD1       -0.4552
      6  O6        -0.8740   -4.2010    1.6480 O.3     1  LGD1       -0.4684
      7  O7        -1.7900   -5.7780   -3.8550 O.3     1  LGD1       -0.2162
      8  N8        -1.7530   -0.7830    1.5230 N.pl3   1  LGD1       -0.0737
      9  N9         0.3390   -0.5240    0.3740 N.ar    1  LGD1       -0.2027
     10  N10        1.0360   -2.1690   -1.2920 N.ar    1  LGD1       -0.1866
     11  N11        3.5650   -0.8760   -1.4300 N.ar    1  LGD1       -0.2224
     12  N12        2.6560    0.8500    0.1510 N.ar    1  LGD1       -0.2224
     13  C13       -1.4400   -5.9120    5.8920 C.3     1  LGD1        0.0189
     14  C14       -1.3950   -4.5650    5.1730 C.ar    1  LGD1       -0.0227
     15  C15       -2.8480   -6.5760    5.9300 C.3     1  LGD1        0.0044
     16  C16       -0.9410   -5.7050    7.3700 C.3     1  LGD1        0.0044
     17  C17       -0.4420   -6.9900    5.3490 C.3     1  LGD1        0.0044
     18  C18       -2.5850   -3.9780    4.6720 C.ar    1  LGD1       -0.0029
     19  C19       -0.2120   -3.8420    4.9930 C.ar    1  LGD1       -0.0029
     20  C20       -1.4050   -2.0360    3.8760 C.ar    1  LGD1        0.1271
     21  C21       -2.5390   -2.7450    3.9340 C.ar    1  LGD1        0.0199
     22  C22       -0.2040   -2.5330    4.4910 C.ar    1  LGD1        0.0199
     23  C23       -0.8490   -1.1070    0.4790 C.ar    1  LGD1        0.2125
     24  C24       -1.2120   -2.1300   -0.3670 C.ar    1  LGD1        0.2327
     25  C25       -0.2730   -2.6850   -1.2660 C.ar    1  LGD1        0.2651
     26  C26        1.2040   -1.0400   -0.5830 C.ar    1  LGD1        0.2028
     27  C27       -2.7130   -4.0870    0.1540 C.ar    1  LGD1        0.1793
     28  C28        2.5230   -0.2570   -0.7150 C.ar    1  LGD1        0.1990
     29  C29       -0.6980   -3.6470   -3.4650 C.3     1  LGD1        0.2426
     30  C30       -1.9350   -4.8530    1.0150 C.ar    1  LGD1        0.1730
     31  C31       -3.7840   -4.6100   -0.4910 C.ar    1  LGD1        0.0406
     32  C32       -2.2760   -6.1720    1.2940 C.ar    1  LGD1        0.0401
     33  C33       -0.7160   -4.9640   -4.3020 C.3     1  LGD1        0.2292
     34  C34       -4.0070   -6.0110   -0.4310 C.ar    1  LGD1        0.0033
     35  C35       -3.2590   -6.7490    0.5490 C.ar    1  LGD1        0.0033
     36  C36        4.7190   -0.2460   -1.3770 C.ar    1  LGD1        0.1023
     37  C37        3.8690    1.4420    0.1890 C.ar    1  LGD1        0.1023
     38  C38        4.8620    0.8750   -0.6060 C.ar    1  LGD1        0.0414
     39  C39        0.2710   -5.0320    1.8750 C.3     1  LGD1        0.2526
@<TRIPOS>BOND
     1    33     7    1
     2    33    29    1
     3     5    29    1
     4     5    25    1
     5    10    25   ar
     6    10    26   ar
     7    36    11   ar
     8    36    38   ar
     9    11    28   ar
    10    25    24   ar
    11    38    37   ar
    12    34    31   ar
    13    34    35   ar
    14    28    26    1
    15    28    12   ar
    16    26     9   ar
    17    31    27   ar
    18    37    12   ar
    19    24     4    1
    20    24    23   ar
    21     4    27    1
    22    27    30   ar
    23    35    32   ar
    24    15    13    1
    25     9    23   ar
    26    23     8    1
    27    30    32   ar
    28    30     6    1
    29     6    39    1
    30     8     1    1
    31    18    14   ar
    32    18    21   ar
    33    13    14    1
    34    13    17    1
    35    13    16    1
    36    14    19   ar
    37    21    20   ar
    38    20     1    1
    39    20    22   ar
    40    19    22   ar
    41     1     2    2
    42     1     3    2
@<TRIPOS>MOLECULE
46174111
 29 32 0 0 0
SMALL
GASTEIGER

@<TRIPOS>ATOM
      1 CL         -4.8442    0.6058   -2.0576 Cl      1  LIG11      -0.0762
      2 S          -4.4676   -2.7345   -0.6351 S.O2    1  LIG11       0.0758
      3 S          -3.0531   -5.9935    1.7820 S.2     1  LIG11      -0.0918
      4 O          -0.1654   -0.8915    3.7994 O.3     1  LIG11      -0.4526
      5 O           1.4103   -2.4381    4.7684 O.3     1  LIG11      -0.4526
      6 O          -5.3709   -2.9942    2.5019 O.2     1  LIG11      -0.2911
      7 O          -5.4724   -3.3212   -1.4962 O.2     1  LIG11      -0.1499
      8 O          -3.2636   -2.1412   -1.1775 O.2     1  LIG11      -0.1499
      9 O          -4.2106    0.0884    1.7423 O.2     1  LIG11      -0.3364
     10 N          -5.2431   -1.6528    0.3835 N.pl3   1  LIG11      -0.1821
     11 N          -3.6590    1.3479    1.5928 N.ar    1  LIG11      -0.0798
     12 C          -2.5002   -3.7014    4.3314 C.ar    1  LIG11      -0.0333
     13 C          -3.9552   -4.0568    4.0876 C.3     1  LIG11       0.0366
     14 C          -1.5785   -4.5924    4.9538 C.ar    1  LIG11      -0.0432
     15 C          -3.8194   -4.1402    0.1814 C.ar    1  LIG11       0.1261
     16 C          -3.8343   -4.4761    1.5286 C.ar    1  LIG11       0.0814
     17 C          -2.0629   -2.4128    3.9504 C.ar    1  LIG11      -0.0123
     18 C          -4.4420   -3.7885    2.6640 C.2     1  LIG11       0.1759
     19 C          -0.7387   -2.0778    4.1326 C.ar    1  LIG11       0.1665
     20 C           0.1558   -2.9544    4.6861 C.ar    1  LIG11       0.1665
     21 C          -0.2299   -4.2073    5.1050 C.ar    1  LIG11      -0.0130
     22 C          -1.9365   -5.9740    5.4372 C.3     1  LIG11      -0.0393
     23 C          -3.1216   -5.1226   -0.6082 C.ar    1  LIG11      -0.0273
     24 C           1.2002   -1.1288    4.1991 C.3     1  LIG11       0.2332
     25 C          -2.6504   -6.1708    0.1417 C.ar    1  LIG11      -0.0217
     26 C          -4.6164   -0.3867    0.5320 C.ar    1  LIG11       0.2554
     27 C          -4.4045    0.5871   -0.4183 C.ar    1  LIG11       0.1262
     28 C          -3.7902    1.6463    0.2928 C.ar    1  LIG11       0.1009
     29 C          -3.3552    2.9708   -0.2067 C.3     1  LIG11      -0.0176
@<TRIPOS>BOND
     1     1    27    1
     2     2    10    1
     3     2    15    1
     4     2     8    2
     5     2     7    2
     6     3    16   ar
     7     3    25   ar
     8     4    24    1
     9     4    19    1
    10     5    20    1
    11     5    24    1
    12     6    18    2
    13     9    11   ar
    14     9    26   ar
    15    10    26    1
    16    11    28   ar
    17    12    17   ar
    18    12    14   ar
    19    13    18    1
    20    13    12    1
    21    14    21   ar
    22    14    22    1
    23    15    23   ar
    24    15    16   ar
    25    16    18    1
    26    17    19   ar
    27    19    20   ar
    28    20    21   ar
    29    23    25   ar
    30    26    27   ar
    31    27    28   ar
    32    28    29    1
