@<TRIPOS>MOLECULE
BOSENTAN_50CONFORMERS.pdb
 39 42 0 0 0
SMALL
GASTEIGER

@<TRIPOS>ATOM
      1  S1        -1.8180   -1.3040    2.9190 S.O2    1  LGD1        0.0943
      2  O2        -0.9920   -2.5570    2.9330 O.2     1  LGD1       -0.1483
      3  O3        -1.4650   -0.1430    3.7450 O.2     1  LGD1       -0.1483
      4  O4        -2.3310   -3.0270   -0.0390 O.3     1  LGD1       -0.4427
      5  O5        -0.6020   -3.7280   -2.1830 O.3     1  LGD1       -0.4552
      6  O6        -4.1150   -5.1070    0.4720 O.3     1  LGD1       -0.4684
      7  O7        -0.9090   -4.8850   -4.9210 O.3     1  LGD1       -0.2162
      8  N8        -1.7480   -0.6300    1.4370 N.pl3   1  LGD1       -0.0737
      9  N9         0.3020   -0.4620    0.3810 N.ar    1  LGD1       -0.2027
     10  N10        0.9970   -2.1480   -1.3370 N.ar    1  LGD1       -0.1866
     11  N11        3.5020   -1.0990   -1.3780 N.ar    1  LGD1       -0.2224
     12  N12        2.5760    1.0050   -0.3820 N.ar    1  LGD1       -0.2224
     13  C13       -7.6460   -2.5010    3.4520 C.3     1  LGD1        0.0189
     14  C14       -6.1720   -2.2500    3.4930 C.ar    1  LGD1       -0.0227
     15  C15       -8.1790   -3.1380    4.7720 C.3     1  LGD1        0.0044
     16  C16       -8.1490   -3.4190    2.3450 C.3     1  LGD1        0.0044
     17  C17       -8.4710   -1.1970    3.2640 C.3     1  LGD1        0.0044
     18  C18       -5.6910   -0.9060    3.6680 C.ar    1  LGD1       -0.0029
     19  C19       -5.2300   -3.2730    3.3020 C.ar    1  LGD1       -0.0029
     20  C20       -3.4820   -1.6820    3.1470 C.ar    1  LGD1        0.1271
     21  C21       -4.3560   -0.6650    3.4890 C.ar    1  LGD1        0.0199
     22  C22       -3.8960   -3.0260    3.1370 C.ar    1  LGD1        0.0199
     23  C23       -0.8590   -1.1860    0.5180 C.ar    1  LGD1        0.2125
     24  C24       -1.1020   -2.2760   -0.2810 C.ar    1  LGD1        0.2327
     25  C25       -0.2010   -2.8410   -1.2110 C.ar    1  LGD1        0.2651
     26  C26        1.1950   -1.0050   -0.5160 C.ar    1  LGD1        0.2028
     27  C27       -3.6420   -2.8750   -0.5670 C.ar    1  LGD1        0.1793
     28  C28        2.5410   -0.2840   -0.7530 C.ar    1  LGD1        0.1990
     29  C29        0.4000   -4.4230   -2.9050 C.3     1  LGD1        0.2426
     30  C30       -4.5000   -3.9550   -0.2560 C.ar    1  LGD1        0.1730
     31  C31       -4.1300   -1.7550   -1.1030 C.ar    1  LGD1        0.0406
     32  C32       -5.8420   -3.8550   -0.7160 C.ar    1  LGD1        0.0401
     33  C33       -0.2710   -5.4790   -3.7750 C.3     1  LGD1        0.2292
     34  C34       -5.4460   -1.5930   -1.4810 C.ar    1  LGD1        0.0033
     35  C35       -6.2900   -2.6930   -1.3690 C.ar    1  LGD1        0.0033
     36  C36        4.6880   -0.4610   -1.6420 C.ar    1  LGD1        0.1023
     37  C37        3.7540    1.6380   -0.6350 C.ar    1  LGD1        0.1023
     38  C38        4.7630    0.8970   -1.2550 C.ar    1  LGD1        0.0414
     39  C39       -4.0070   -6.2920   -0.3130 C.3     1  LGD1        0.2526
@<TRIPOS>BOND
     1    33     7    1
     2    33    29    1
     3     5    29    1
     4     5    25    1
     5    10    25   ar
     6    10    26   ar
     7    36    11   ar
     8    36    38   ar
     9    11    28   ar
    10    25    24   ar
    11    38    37   ar
    12    34    31   ar
    13    34    35   ar
    14    28    26    1
    15    28    12   ar
    16    26     9   ar
    17    31    27   ar
    18    37    12   ar
    19    24     4    1
    20    24    23   ar
    21     4    27    1
    22    27    30   ar
    23    35    32   ar
    24    15    13    1
    25     9    23   ar
    26    23     8    1
    27    30    32   ar
    28    30     6    1
    29     6    39    1
    30     8     1    1
    31    18    14   ar
    32    18    21   ar
    33    13    14    1
    34    13    17    1
    35    13    16    1
    36    14    19   ar
    37    21    20   ar
    38    20     1    1
    39    20    22   ar
    40    19    22   ar
    41     1     2    2
    42     1     3    2
@<TRIPOS>MOLECULE
9912992
 34 37 0 0 0
SMALL
GASTEIGER

@<TRIPOS>ATOM
      1 S          -1.7064   -1.5329    2.6889 S.O2    1  LIG11       0.0908
      2 O          -2.0405   -3.4591   -0.6716 O.3     1  LIG11      -0.4435
      3 O           0.1861   -3.9517   -2.0525 O.3     1  LIG11      -0.4771
      4 O          -0.9254   -2.7541    2.6637 O.2     1  LIG11      -0.1484
      5 O          -1.2859   -0.3699    3.4436 O.2     1  LIG11      -0.1484
      6 O          -4.2445   -4.9234    0.5179 O.3     1  LIG11      -0.4914
      7 N          -2.0199   -1.0480    1.0835 N.pl3   1  LIG11      -0.1950
      8 N           0.0515   -0.5458    0.2082 N.ar    1  LIG11      -0.2073
      9 N           1.2112   -1.9809   -1.2906 N.ar    1  LIG11      -0.1899
     10 N          -3.6605   -3.2431    3.3321 N.ar    1  LIG11      -0.2351
     11 N           4.4098    1.8914   -0.7115 N.ar    1  LIG11      -0.2632
     12 C          -0.9841   -1.4012    0.1747 C.ar    1  LIG11       0.1882
     13 C          -1.0276   -2.5435   -0.6028 C.ar    1  LIG11       0.2307
     14 C          -3.3839   -1.9214    3.2140 C.ar    1  LIG11       0.1969
     15 C           0.1426   -2.7981   -1.2895 C.ar    1  LIG11       0.2638
     16 C           1.1179   -0.8680   -0.5392 C.ar    1  LIG11       0.1659
     17 C          -4.3225   -0.9034    3.3045 C.ar    1  LIG11      -0.0160
     18 C           2.2494    0.0727   -0.5786 C.ar    1  LIG11       0.0222
     19 C          -3.3417   -3.0490   -0.8462 C.ar    1  LIG11       0.1702
     20 C          -5.9817   -2.6221    3.6456 C.ar    1  LIG11      -0.0322
     21 C          -5.6467   -1.2692    3.5258 C.ar    1  LIG11      -0.0541
     22 C          -4.9530   -3.5580    3.5593 C.ar    1  LIG11       0.0327
     23 C          -4.3649   -3.7748   -0.2168 C.ar    1  LIG11       0.1621
     24 C          -3.6677   -1.9206   -1.6167 C.ar    1  LIG11      -0.0157
     25 C          -7.3932   -3.0648    3.8722 C.3     1  LIG11      -0.0383
     26 C           3.5150   -0.3230   -1.0389 C.ar    1  LIG11      -0.0329
     27 C           2.1072    1.4090   -0.1765 C.ar    1  LIG11      -0.0329
     28 C          -5.6761   -3.2868   -0.2646 C.ar    1  LIG11      -0.0163
     29 C          -4.9827   -1.4553   -1.6666 C.ar    1  LIG11      -0.0581
     30 C          -5.9848   -2.1281   -0.9752 C.ar    1  LIG11      -0.0581
     31 C           4.5449    0.6030   -1.0833 C.ar    1  LIG11       0.0282
     32 C           3.1942    2.2648   -0.2638 C.ar    1  LIG11       0.0282
     33 C           1.4987   -4.2892   -2.4882 C.3     1  LIG11       0.0805
     34 C          -3.1477   -5.7797    0.2201 C.3     1  LIG11       0.0790
@<TRIPOS>BOND
     1     1     4    2
     2     1     5    2
     3     1     7    1
     4     1    14    1
     5     2    13    1
     6     2    19    1
     7     3    15    1
     8     3    33    1
     9     6    23    1
    10     6    34    1
    11     7    12    1
    12     8    12   ar
    13     8    16   ar
    14     9    15   ar
    15     9    16   ar
    16    10    14   ar
    17    10    22   ar
    18    11    31   ar
    19    11    32   ar
    20    12    13   ar
    21    13    15   ar
    22    14    17   ar
    23    16    18    1
    24    17    21   ar
    25    18    26   ar
    26    18    27   ar
    27    19    23   ar
    28    19    24   ar
    29    20    21   ar
    30    20    22   ar
    31    20    25    1
    32    23    28   ar
    33    24    29   ar
    34    26    31   ar
    35    27    32   ar
    36    28    30   ar
    37    29    30   ar
