@<TRIPOS>MOLECULE
BOSENTAN_50CONFORMERS.pdb
 39 42 0 0 0
SMALL
GASTEIGER

@<TRIPOS>ATOM
      1  S1        -1.6410    0.6860    2.4560 S.O2    1  LGD1        0.0943
      2  O2        -1.3520    1.8340    1.5570 O.2     1  LGD1       -0.1483
      3  O3        -2.8280    0.6310    3.3500 O.2     1  LGD1       -0.1483
      4  O4        -2.5220   -2.6610   -0.2930 O.3     1  LGD1       -0.4427
      5  O5        -0.5450   -3.8450   -2.0380 O.3     1  LGD1       -0.4552
      6  O6        -5.1660   -2.9260    0.7860 O.3     1  LGD1       -0.4684
      7  O7         0.0380   -6.7410   -2.8450 O.3     1  LGD1       -0.2162
      8  N8        -1.7810   -0.7390    1.4900 N.pl3   1  LGD1       -0.0737
      9  N9         0.3880   -0.5790    0.3990 N.ar    1  LGD1       -0.2027
     10  N10        1.0090   -2.0750   -1.3690 N.ar    1  LGD1       -0.1866
     11  N11        3.4500   -0.9450   -1.4270 N.ar    1  LGD1       -0.2224
     12  N12        2.6080    0.9490   -0.1290 N.ar    1  LGD1       -0.2224
     13  C13        3.0060   -0.4140    6.2670 C.3     1  LGD1        0.0189
     14  C14        1.7960   -0.2250    5.3460 C.ar    1  LGD1       -0.0227
     15  C15        3.6020    0.8790    6.7690 C.3     1  LGD1        0.0044
     16  C16        4.0990   -1.2220    5.5180 C.3     1  LGD1        0.0044
     17  C17        2.7020   -1.3170    7.5110 C.3     1  LGD1        0.0044
     18  C18        0.5860   -0.9460    5.4420 C.ar    1  LGD1       -0.0029
     19  C19        1.9640    0.7150    4.2860 C.ar    1  LGD1       -0.0029
     20  C20       -0.2480    0.3390    3.5910 C.ar    1  LGD1        0.1271
     21  C21       -0.4380   -0.6670    4.5460 C.ar    1  LGD1        0.0199
     22  C22        0.9140    1.0760    3.4700 C.ar    1  LGD1        0.0199
     23  C23       -0.8660   -1.1160    0.4880 C.ar    1  LGD1        0.2125
     24  C24       -1.2140   -2.1850   -0.3940 C.ar    1  LGD1        0.2327
     25  C25       -0.2410   -2.7090   -1.2100 C.ar    1  LGD1        0.2651
     26  C26        1.2320   -1.0290   -0.5570 C.ar    1  LGD1        0.2028
     27  C27       -3.6100   -1.9910   -0.8550 C.ar    1  LGD1        0.1793
     28  C28        2.5120   -0.2650   -0.7460 C.ar    1  LGD1        0.1990
     29  C29        0.5500   -4.2720   -2.9720 C.3     1  LGD1        0.2426
     30  C30       -4.8960   -2.1580   -0.3670 C.ar    1  LGD1        0.1730
     31  C31       -3.4260   -0.9480   -1.7950 C.ar    1  LGD1        0.0406
     32  C32       -5.9660   -1.4110   -0.8700 C.ar    1  LGD1        0.0401
     33  C33        0.2550   -5.6500   -3.6940 C.3     1  LGD1        0.2292
     34  C34       -4.4950   -0.1990   -2.2740 C.ar    1  LGD1        0.0033
     35  C35       -5.7700   -0.4310   -1.8670 C.ar    1  LGD1        0.0033
     36  C36        4.6630   -0.3400   -1.5250 C.ar    1  LGD1        0.1023
     37  C37        3.8560    1.4910   -0.1510 C.ar    1  LGD1        0.1023
     38  C38        4.8320    0.8620   -0.8950 C.ar    1  LGD1        0.0414
     39  C39       -5.6290   -4.2950    0.5660 C.3     1  LGD1        0.2526
@<TRIPOS>BOND
     1    33     7    1
     2    33    29    1
     3     5    29    1
     4     5    25    1
     5    10    25   ar
     6    10    26   ar
     7    36    11   ar
     8    36    38   ar
     9    11    28   ar
    10    25    24   ar
    11    38    37   ar
    12    34    31   ar
    13    34    35   ar
    14    28    26    1
    15    28    12   ar
    16    26     9   ar
    17    31    27   ar
    18    37    12   ar
    19    24     4    1
    20    24    23   ar
    21     4    27    1
    22    27    30   ar
    23    35    32   ar
    24    15    13    1
    25     9    23   ar
    26    23     8    1
    27    30    32   ar
    28    30     6    1
    29     6    39    1
    30     8     1    1
    31    18    14   ar
    32    18    21   ar
    33    13    14    1
    34    13    17    1
    35    13    16    1
    36    14    19   ar
    37    21    20   ar
    38    20     1    1
    39    20    22   ar
    40    19    22   ar
    41     1     2    2
    42     1     3    2
@<TRIPOS>MOLECULE
16004692
 32 34 0 0 0
SMALL
GASTEIGER

@<TRIPOS>ATOM
      1 BR          1.5666    2.6265    2.7021 Br      1  LIG11      -0.0503
      2 BR         -4.9299   -1.5640   -3.4023 Br      1  LIG11      -0.0472
      3 S           2.4376   -3.8528    6.6321 S.O2    1  LIG11       0.1104
      4 O          -3.2218   -1.5627    5.6588 O.3     1  LIG11      -0.4724
      5 O           3.6917   -3.9951    5.9361 O.2     1  LIG11      -0.1381
      6 O           1.9658   -4.8985    7.5058 O.2     1  LIG11      -0.1381
      7 O          -3.0903   -0.5592    2.1450 O.3     1  LIG11      -0.4590
      8 N           2.4869   -2.4712    7.5555 N.3     1  LIG11      -0.1771
      9 N           1.2906   -3.4948    5.4609 N.pl3   1  LIG11      -0.1889
     10 N          -0.5554   -4.5671    6.3232 N.ar    1  LIG11      -0.2186
     11 N          -2.7053   -3.5890    6.3916 N.ar    1  LIG11      -0.2008
     12 N          -4.7080   -1.4696    0.7281 N.ar    1  LIG11      -0.2022
     13 N          -2.6564   -0.5656   -0.0970 N.ar    1  LIG11      -0.2022
     14 C           2.7163   -1.1494    6.9718 C.3     1  LIG11       0.0185
     15 C          -0.8730   -2.3117    5.4880 C.ar    1  LIG11       0.0848
     16 C          -0.0836   -3.4153    5.8380 C.ar    1  LIG11       0.1532
     17 C           4.1639   -0.8427    6.6141 C.3     1  LIG11      -0.0416
     18 C          -0.2974   -1.1278    4.8329 C.ar    1  LIG11      -0.0094
     19 C          -2.2199   -2.4725    5.8105 C.ar    1  LIG11       0.2276
     20 C           4.4885   -1.0740    5.1432 C.3     1  LIG11      -0.0641
     21 C           0.2197   -1.2159    3.5263 C.ar    1  LIG11      -0.0527
     22 C          -0.2430    0.1179    5.4851 C.ar    1  LIG11      -0.0527
     23 C          -3.3220   -0.7645    4.4870 C.3     1  LIG11       0.1252
     24 C           0.7716   -0.1011    2.8911 C.ar    1  LIG11      -0.0472
     25 C           0.3078    1.2358    4.8500 C.ar    1  LIG11      -0.0472
     26 C          -1.8522   -4.5878    6.6146 C.ar    1  LIG11       0.1219
     27 C          -3.4108   -1.5132    3.1583 C.3     1  LIG11       0.1267
     28 C           0.8141    1.1193    3.5570 C.ar    1  LIG11       0.0179
     29 C          -3.4877   -0.9344    0.8895 C.ar    1  LIG11       0.3180
     30 C          -5.1041   -1.6498   -0.5509 C.ar    1  LIG11       0.0483
     31 C          -3.1019   -0.7739   -1.3538 C.ar    1  LIG11       0.0483
     32 C          -4.3338   -1.3144   -1.6406 C.ar    1  LIG11       0.0543
@<TRIPOS>BOND
     1     1    28    1
     2     2    32    1
     3     3     5    2
     4     3     6    2
     5     3     8    1
     6     3     9    1
     7     4    19    1
     8     4    23    1
     9     7    27    1
    10     7    29    1
    11     8    14    1
    12     9    16    1
    13    10    16   ar
    14    10    26   ar
    15    11    19   ar
    16    11    26   ar
    17    12    29   ar
    18    12    30   ar
    19    13    29   ar
    20    13    31   ar
    21    14    17    1
    22    15    16   ar
    23    15    18    1
    24    15    19   ar
    25    17    20    1
    26    18    21   ar
    27    18    22   ar
    28    21    24   ar
    29    22    25   ar
    30    23    27    1
    31    24    28   ar
    32    25    28   ar
    33    30    32   ar
    34    31    32   ar
