@<TRIPOS>MOLECULE
BOSENTAN_50CONFORMERS.pdb
 39 42 0 0 0
SMALL
GASTEIGER

@<TRIPOS>ATOM
      1  S1        -1.8260    0.8680    2.1150 S.O2    1  LGD1        0.0943
      2  O2        -3.2310    1.0510    2.6420 O.2     1  LGD1       -0.1483
      3  O3        -0.7360    0.8420    3.1650 O.2     1  LGD1       -0.1483
      4  O4        -2.4030   -2.7480   -0.1730 O.3     1  LGD1       -0.4427
      5  O5        -0.5250   -3.7950   -2.0950 O.3     1  LGD1       -0.4552
      6  O6        -2.8550   -0.2480   -1.8440 O.3     1  LGD1       -0.4684
      7  O7        -1.9730   -4.8030   -4.4000 O.3     1  LGD1       -0.2162
      8  N8        -1.8030   -0.6630    1.3420 N.pl3   1  LGD1       -0.0737
      9  N9         0.3910   -0.5170    0.4490 N.ar    1  LGD1       -0.2027
     10  N10        0.9160   -2.0940   -1.3960 N.ar    1  LGD1       -0.1866
     11  N11        2.6710    0.8150   -0.9050 N.ar    1  LGD1       -0.2224
     12  N12        3.5280   -1.4300   -0.5030 N.ar    1  LGD1       -0.2224
     13  C13       -0.5230    4.4800   -2.6490 C.3     1  LGD1        0.0189
     14  C14       -0.8270    3.6580   -1.3880 C.ar    1  LGD1       -0.0227
     15  C15       -1.6210    5.5800   -2.8100 C.3     1  LGD1        0.0044
     16  C16       -0.4680    3.6970   -4.0130 C.3     1  LGD1        0.0044
     17  C17        0.8300    5.1600   -2.6730 C.3     1  LGD1        0.0044
     18  C18        0.1540    3.3630   -0.3720 C.ar    1  LGD1       -0.0029
     19  C19       -2.1270    3.0610   -1.2730 C.ar    1  LGD1       -0.0029
     20  C20       -1.4510    1.9720    0.8310 C.ar    1  LGD1        0.1271
     21  C21       -0.1290    2.4730    0.7040 C.ar    1  LGD1        0.0199
     22  C22       -2.4280    2.2780   -0.1370 C.ar    1  LGD1        0.0199
     23  C23       -0.8140   -1.1840    0.5480 C.ar    1  LGD1        0.2125
     24  C24       -1.1190   -2.2490   -0.2350 C.ar    1  LGD1        0.2327
     25  C25       -0.2610   -2.7270   -1.2750 C.ar    1  LGD1        0.2651
     26  C26        1.1980   -1.0480   -0.5300 C.ar    1  LGD1        0.2028
     27  C27       -3.3080   -2.6450   -1.2120 C.ar    1  LGD1        0.1793
     28  C28        2.5710   -0.4720   -0.5450 C.ar    1  LGD1        0.1990
     29  C29       -0.0310   -3.6890   -3.4570 C.3     1  LGD1        0.2426
     30  C30       -3.5470   -1.4580   -2.0260 C.ar    1  LGD1        0.1730
     31  C31       -4.0820   -3.7780   -1.4710 C.ar    1  LGD1        0.0406
     32  C32       -4.5460   -1.5120   -2.9680 C.ar    1  LGD1        0.0401
     33  C33       -0.5230   -4.8470   -4.3420 C.3     1  LGD1        0.2292
     34  C34       -5.0600   -3.7560   -2.4690 C.ar    1  LGD1        0.0033
     35  C35       -5.2410   -2.6820   -3.2890 C.ar    1  LGD1        0.0033
     36  C36        3.9260    1.3540   -0.9780 C.ar    1  LGD1        0.1023
     37  C37        4.8260   -0.9910   -0.5450 C.ar    1  LGD1        0.1023
     38  C38        4.9700    0.4280   -0.7720 C.ar    1  LGD1        0.0414
     39  C39       -1.9900   -0.1040   -3.0090 C.3     1  LGD1        0.2526
@<TRIPOS>BOND
     1    33     7    1
     2    33    29    1
     3     5    29    1
     4     5    25    1
     5    10    25   ar
     6    10    26   ar
     7    36    11   ar
     8    36    38   ar
     9    11    28   ar
    10    25    24   ar
    11    38    37   ar
    12    34    31   ar
    13    34    35   ar
    14    28    26    1
    15    28    12   ar
    16    26     9   ar
    17    31    27   ar
    18    37    12   ar
    19    24     4    1
    20    24    23   ar
    21     4    27    1
    22    27    30   ar
    23    35    32   ar
    24    15    13    1
    25     9    23   ar
    26    23     8    1
    27    30    32   ar
    28    30     6    1
    29     6    39    1
    30     8     1    1
    31    18    14   ar
    32    18    21   ar
    33    13    14    1
    34    13    17    1
    35    13    16    1
    36    14    19   ar
    37    21    20   ar
    38    20     1    1
    39    20    22   ar
    40    19    22   ar
    41     1     2    2
    42     1     3    2
@<TRIPOS>MOLECULE
3047752
 39 43 0 0 0
SMALL
GASTEIGER

@<TRIPOS>ATOM
      1 O          -1.6936    0.4368   -5.0515 O.co2   1  LIG11      -0.5495
      2 O          -0.7182   -1.0219   -3.6021 O.co2   1  LIG11      -0.5495
      3 O          -5.7003   -3.2457    0.1185 O.3     1  LIG11      -0.4526
      4 O          -5.2728   -5.1697   -1.2760 O.3     1  LIG11      -0.4526
      5 O           0.4418    3.7590    2.0170 O.3     1  LIG11      -0.4951
      6 O          -1.3110    6.9558   -4.1885 O.co2   1  LIG11      -0.5495
      7 O           0.9581    7.1197   -4.1292 O.co2   1  LIG11      -0.5495
      8 N          -4.5052    3.2536   -1.8603 N.ar    1  LIG11      -0.2556
      9 C          -2.4732    0.3299   -2.8094 C.3     1  LIG11       0.0217
     10 C          -2.4797    1.8657   -2.5626 C.3     1  LIG11       0.0357
     11 C          -3.8823   -0.0783   -3.3082 C.3     1  LIG11       0.0199
     12 C          -4.7375    1.0629   -2.8341 C.ar    1  LIG11      -0.0174
     13 C          -3.9733    2.1209   -2.3681 C.ar    1  LIG11       0.0534
     14 C          -1.6419    2.4099   -1.3965 C.ar    1  LIG11      -0.0344
     15 C          -4.2866   -1.4515   -2.7712 C.ar    1  LIG11      -0.0356
     16 C          -1.5221   -0.0969   -3.9229 C.2     1  LIG11       0.0466
     17 C          -6.1187    1.1754   -2.8531 C.ar    1  LIG11      -0.0546
     18 C          -1.1393    3.7375   -1.3808 C.ar    1  LIG11      -0.0395
     19 C          -1.4213    1.6218   -0.2475 C.ar    1  LIG11      -0.0542
     20 C          -5.8557    3.3442   -1.8471 C.ar    1  LIG11       0.0416
     21 C          -4.8433   -1.6268   -1.4905 C.ar    1  LIG11      -0.0124
     22 C          -6.6887    2.3379   -2.3456 C.ar    1  LIG11      -0.0401
     23 C          -4.0242   -2.5921   -3.5681 C.ar    1  LIG11      -0.0543
     24 C          -1.3455    4.7588   -2.5003 C.3     1  LIG11      -0.0196
     25 C          -0.4368    4.2046   -0.2408 C.ar    1  LIG11      -0.0165
     26 C          -6.4411    4.5880   -1.2317 C.3     1  LIG11      -0.0104
     27 C          -0.0380    5.1865   -3.1895 C.3     1  LIG11      -0.0003
     28 C          -5.1489   -2.9068   -1.0789 C.ar    1  LIG11       0.1665
     29 C          -0.7106    2.1011    0.8579 C.ar    1  LIG11      -0.0197
     30 C          -4.3388   -3.8798   -3.1218 C.ar    1  LIG11      -0.0159
     31 C          -0.2161    3.3972    0.8716 C.ar    1  LIG11       0.1204
     32 C          -4.9060   -4.0029   -1.8736 C.ar    1  LIG11       0.1662
     33 C          -6.5081    4.5271    0.2988 C.3     1  LIG11      -0.0479
     34 C           0.4335    4.1479   -4.2025 C.3     1  LIG11      -0.0570
     35 C          -7.5186    3.5000    0.8205 C.3     1  LIG11      -0.0556
     36 C          -0.1501    6.5387   -3.9179 C.2     1  LIG11       0.0449
     37 C          -5.7372   -4.6799   -0.0026 C.3     1  LIG11       0.2332
     38 C          -7.6458    3.5604    2.3346 C.3     1  LIG11      -0.0653
     39 C           0.9108    5.1000    2.0700 C.3     1  LIG11       0.0788
@<TRIPOS>BOND
     1     1    16   ar
     2     2    16   ar
     3     3    28    1
     4     3    37    1
     5     4    32    1
     6     4    37    1
     7     5    31    1
     8     5    39    1
     9     6    36   ar
    10     7    36   ar
    11     8    13   ar
    12     8    20   ar
    13     9    10    1
    14     9    11    1
    15     9    16    1
    16    10    13    1
    17    10    14    1
    18    11    12    1
    19    11    15    1
    20    12    13   ar
    21    12    17   ar
    22    14    18   ar
    23    14    19   ar
    24    15    21   ar
    25    15    23   ar
    26    17    22   ar
    27    18    24    1
    28    18    25   ar
    29    19    29   ar
    30    20    22   ar
    31    20    26    1
    32    21    28   ar
    33    23    30   ar
    34    24    27    1
    35    25    31   ar
    36    26    33    1
    37    27    34    1
    38    27    36    1
    39    28    32   ar
    40    29    31   ar
    41    30    32   ar
    42    33    35    1
    43    35    38    1
