@<TRIPOS>MOLECULE
BOSENTAN_50CONFORMERS.pdb
 39 42 0 0 0
SMALL
GASTEIGER

@<TRIPOS>ATOM
      1  S1        -2.4230   -1.4340    2.6960 S.O2    1  LGD1        0.0943
      2  O2        -1.4830   -2.5200    3.0230 O.2     1  LGD1       -0.1483
      3  O3        -2.7960   -0.3780    3.7010 O.2     1  LGD1       -0.1483
      4  O4        -2.4300   -2.9140   -0.0410 O.3     1  LGD1       -0.4427
      5  O5        -0.5180   -3.7750   -2.1260 O.3     1  LGD1       -0.4552
      6  O6        -2.8620   -5.6270    0.2600 O.3     1  LGD1       -0.4684
      7  O7         0.5520   -6.4420   -3.2760 O.3     1  LGD1       -0.2162
      8  N8        -1.7520   -0.5960    1.4170 N.pl3   1  LGD1       -0.0737
      9  N9         0.3370   -0.5330    0.3640 N.ar    1  LGD1       -0.2027
     10  N10        0.9720   -2.1140   -1.3570 N.ar    1  LGD1       -0.1866
     11  N11        3.5910   -1.3680   -0.9490 N.ar    1  LGD1       -0.2224
     12  N12        2.8870    0.5790    0.3830 N.ar    1  LGD1       -0.2224
     13  C13       -7.8160   -3.8990    0.8710 C.3     1  LGD1        0.0189
     14  C14       -6.4490   -3.1960    1.2150 C.ar    1  LGD1       -0.0227
     15  C15       -8.4650   -3.3140   -0.4500 C.3     1  LGD1        0.0044
     16  C16       -8.8390   -3.8220    2.0410 C.3     1  LGD1        0.0044
     17  C17       -7.5170   -5.4190    0.4400 C.3     1  LGD1        0.0044
     18  C18       -5.9970   -1.9760    0.7180 C.ar    1  LGD1       -0.0029
     19  C19       -5.6730   -3.7910    2.2570 C.ar    1  LGD1       -0.0029
     20  C20       -3.9810   -2.0430    2.1430 C.ar    1  LGD1        0.1271
     21  C21       -4.8320   -1.3620    1.2320 C.ar    1  LGD1        0.0199
     22  C22       -4.4050   -3.2890    2.6770 C.ar    1  LGD1        0.0199
     23  C23       -0.8360   -1.2200    0.5460 C.ar    1  LGD1        0.2125
     24  C24       -1.1500   -2.2920   -0.2690 C.ar    1  LGD1        0.2327
     25  C25       -0.2480   -2.7090   -1.2580 C.ar    1  LGD1        0.2651
     26  C26        1.1780   -1.0390   -0.5090 C.ar    1  LGD1        0.2028
     27  C27       -3.2220   -3.5710   -0.9140 C.ar    1  LGD1        0.1793
     28  C28        2.6830   -0.4990   -0.3990 C.ar    1  LGD1        0.1990
     29  C29        0.0020   -4.9080   -1.4450 C.3     1  LGD1        0.2426
     30  C30       -3.4310   -4.9650   -0.8450 C.ar    1  LGD1        0.1730
     31  C31       -3.8210   -2.7820   -1.9370 C.ar    1  LGD1        0.0406
     32  C32       -4.2470   -5.6190   -1.8180 C.ar    1  LGD1        0.0401
     33  C33       -0.4170   -6.1390   -2.2450 C.3     1  LGD1        0.2292
     34  C34       -4.6890   -3.4580   -2.8420 C.ar    1  LGD1        0.0033
     35  C35       -5.0040   -4.8410   -2.7420 C.ar    1  LGD1        0.0033
     36  C36        4.8670   -1.0760   -0.7340 C.ar    1  LGD1        0.1023
     37  C37        4.1850    0.8110    0.6060 C.ar    1  LGD1        0.1023
     38  C38        5.1780   -0.0510    0.1130 C.ar    1  LGD1        0.0414
     39  C39       -3.4410   -6.9060    0.6760 C.3     1  LGD1        0.2526
@<TRIPOS>BOND
     1    33     7    1
     2    33    29    1
     3     5    29    1
     4     5    25    1
     5    10    25   ar
     6    10    26   ar
     7    36    11   ar
     8    36    38   ar
     9    11    28   ar
    10    25    24   ar
    11    38    37   ar
    12    34    31   ar
    13    34    35   ar
    14    28    26    1
    15    28    12   ar
    16    26     9   ar
    17    31    27   ar
    18    37    12   ar
    19    24     4    1
    20    24    23   ar
    21     4    27    1
    22    27    30   ar
    23    35    32   ar
    24    15    13    1
    25     9    23   ar
    26    23     8    1
    27    30    32   ar
    28    30     6    1
    29     6    39    1
    30     8     1    1
    31    18    14   ar
    32    18    21   ar
    33    13    14    1
    34    13    17    1
    35    13    16    1
    36    14    19   ar
    37    21    20   ar
    38    20     1    1
    39    20    22   ar
    40    19    22   ar
    41     1     2    2
    42     1     3    2
@<TRIPOS>MOLECULE
9957262
 35 38 0 0 0
SMALL
GASTEIGER

@<TRIPOS>ATOM
      1 S          -2.2866    1.2465    0.1877 S.O2    1  LIG11       0.0668
      2 O          -2.4746   -1.3970   -2.2972 O.3     1  LIG11      -0.4435
      3 O          -0.4442   -3.3960   -2.7381 O.3     1  LIG11      -0.4771
      4 O          -2.9228    2.5467    0.1490 O.2     1  LIG11      -0.1505
      5 O          -1.2723    0.9785    1.1878 O.2     1  LIG11      -0.1505
      6 O          -4.3427   -2.3198   -4.3739 O.3     1  LIG11      -0.4914
      7 N          -1.5588    1.0821   -1.3369 N.pl3   1  LIG11      -0.1968
      8 N           0.5617    0.2430   -1.1790 N.ar    1  LIG11      -0.2044
      9 N           1.1304   -1.9889   -1.7577 N.ar    1  LIG11      -0.1867
     10 N           3.6226   -1.6049   -0.5551 N.ar    1  LIG11      -0.2331
     11 N           3.2977    0.7519   -0.7796 N.ar    1  LIG11      -0.2331
     12 C          -0.7071   -0.0493   -1.4908 C.ar    1  LIG11       0.1883
     13 C          -1.1583   -1.2741   -1.9433 C.ar    1  LIG11       0.2307
     14 C          -0.1525   -2.2067   -2.1037 C.ar    1  LIG11       0.2639
     15 C          -3.1051   -2.6182   -2.2249 C.ar    1  LIG11       0.1702
     16 C          -3.5440    0.0560    0.2962 C.2     1  LIG11       0.0729
     17 C           1.4495   -0.7662   -1.2830 C.ar    1  LIG11       0.2027
     18 C          -3.9986   -3.0001   -3.2368 C.ar    1  LIG11       0.1621
     19 C          -3.7243   -0.5963    1.4564 C.2     1  LIG11      -0.0353
     20 C          -4.7356   -1.6308    1.7350 C.ar    1  LIG11      -0.0237
     21 C          -2.9512   -3.4359   -1.0911 C.ar    1  LIG11      -0.0157
     22 C           2.8571   -0.5266   -0.8551 C.ar    1  LIG11       0.1978
     23 C          -4.6850   -4.2166   -3.1106 C.ar    1  LIG11      -0.0163
     24 C          -3.6286   -4.6512   -0.9910 C.ar    1  LIG11      -0.0581
     25 C          -4.4943   -5.0442   -2.0041 C.ar    1  LIG11      -0.0581
     26 C          -5.5985   -2.1566    0.7655 C.ar    1  LIG11      -0.0546
     27 C          -4.8135   -2.1433    3.0398 C.ar    1  LIG11      -0.0546
     28 C          -6.4980   -3.1789    1.0859 C.ar    1  LIG11      -0.0612
     29 C          -5.7180   -3.1586    3.3628 C.ar    1  LIG11      -0.0612
     30 C          -6.5568   -3.6805    2.3831 C.ar    1  LIG11      -0.0617
     31 C           0.5105   -4.4226   -2.4869 C.3     1  LIG11       0.0805
     32 C          -3.5264   -1.2384   -4.7968 C.3     1  LIG11       0.0790
     33 C           4.8817   -1.3616   -0.1496 C.ar    1  LIG11       0.0315
     34 C           4.5680    0.9310   -0.3734 C.ar    1  LIG11       0.0315
     35 C           5.4128   -0.0998   -0.0398 C.ar    1  LIG11      -0.0254
@<TRIPOS>BOND
     1     1     4    2
     2     1     5    2
     3     1     7    1
     4     1    16    1
     5     2    13    1
     6     2    15    1
     7     3    14    1
     8     3    31    1
     9     6    18    1
    10     6    32    1
    11     7    12    1
    12     8    12   ar
    13     8    17   ar
    14     9    14   ar
    15     9    17   ar
    16    10    22   ar
    17    10    33   ar
    18    11    22   ar
    19    11    34   ar
    20    12    13   ar
    21    13    14   ar
    22    15    18   ar
    23    15    21   ar
    24    16    19    2
    25    17    22    1
    26    18    23   ar
    27    19    20    1
    28    20    26   ar
    29    20    27   ar
    30    21    24   ar
    31    23    25   ar
    32    24    25   ar
    33    26    28   ar
    34    27    29   ar
    35    28    30   ar
    36    29    30   ar
    37    33    35   ar
    38    34    35   ar
