@<TRIPOS>MOLECULE
BOSENTAN_50CONFORMERS.pdb
 39 42 0 0 0
SMALL
GASTEIGER

@<TRIPOS>ATOM
      1  S1        -1.8180   -1.3040    2.9190 S.O2    1  LGD1        0.0943
      2  O2        -0.9920   -2.5570    2.9330 O.2     1  LGD1       -0.1483
      3  O3        -1.4650   -0.1430    3.7450 O.2     1  LGD1       -0.1483
      4  O4        -2.3310   -3.0270   -0.0390 O.3     1  LGD1       -0.4427
      5  O5        -0.6020   -3.7280   -2.1830 O.3     1  LGD1       -0.4552
      6  O6        -4.1150   -5.1070    0.4720 O.3     1  LGD1       -0.4684
      7  O7        -0.9090   -4.8850   -4.9210 O.3     1  LGD1       -0.2162
      8  N8        -1.7480   -0.6300    1.4370 N.pl3   1  LGD1       -0.0737
      9  N9         0.3020   -0.4620    0.3810 N.ar    1  LGD1       -0.2027
     10  N10        0.9970   -2.1480   -1.3370 N.ar    1  LGD1       -0.1866
     11  N11        3.5020   -1.0990   -1.3780 N.ar    1  LGD1       -0.2224
     12  N12        2.5760    1.0050   -0.3820 N.ar    1  LGD1       -0.2224
     13  C13       -7.6460   -2.5010    3.4520 C.3     1  LGD1        0.0189
     14  C14       -6.1720   -2.2500    3.4930 C.ar    1  LGD1       -0.0227
     15  C15       -8.1790   -3.1380    4.7720 C.3     1  LGD1        0.0044
     16  C16       -8.1490   -3.4190    2.3450 C.3     1  LGD1        0.0044
     17  C17       -8.4710   -1.1970    3.2640 C.3     1  LGD1        0.0044
     18  C18       -5.6910   -0.9060    3.6680 C.ar    1  LGD1       -0.0029
     19  C19       -5.2300   -3.2730    3.3020 C.ar    1  LGD1       -0.0029
     20  C20       -3.4820   -1.6820    3.1470 C.ar    1  LGD1        0.1271
     21  C21       -4.3560   -0.6650    3.4890 C.ar    1  LGD1        0.0199
     22  C22       -3.8960   -3.0260    3.1370 C.ar    1  LGD1        0.0199
     23  C23       -0.8590   -1.1860    0.5180 C.ar    1  LGD1        0.2125
     24  C24       -1.1020   -2.2760   -0.2810 C.ar    1  LGD1        0.2327
     25  C25       -0.2010   -2.8410   -1.2110 C.ar    1  LGD1        0.2651
     26  C26        1.1950   -1.0050   -0.5160 C.ar    1  LGD1        0.2028
     27  C27       -3.6420   -2.8750   -0.5670 C.ar    1  LGD1        0.1793
     28  C28        2.5410   -0.2840   -0.7530 C.ar    1  LGD1        0.1990
     29  C29        0.4000   -4.4230   -2.9050 C.3     1  LGD1        0.2426
     30  C30       -4.5000   -3.9550   -0.2560 C.ar    1  LGD1        0.1730
     31  C31       -4.1300   -1.7550   -1.1030 C.ar    1  LGD1        0.0406
     32  C32       -5.8420   -3.8550   -0.7160 C.ar    1  LGD1        0.0401
     33  C33       -0.2710   -5.4790   -3.7750 C.3     1  LGD1        0.2292
     34  C34       -5.4460   -1.5930   -1.4810 C.ar    1  LGD1        0.0033
     35  C35       -6.2900   -2.6930   -1.3690 C.ar    1  LGD1        0.0033
     36  C36        4.6880   -0.4610   -1.6420 C.ar    1  LGD1        0.1023
     37  C37        3.7540    1.6380   -0.6350 C.ar    1  LGD1        0.1023
     38  C38        4.7630    0.8970   -1.2550 C.ar    1  LGD1        0.0414
     39  C39       -4.0070   -6.2920   -0.3130 C.3     1  LGD1        0.2526
@<TRIPOS>BOND
     1    33     7    1
     2    33    29    1
     3     5    29    1
     4     5    25    1
     5    10    25   ar
     6    10    26   ar
     7    36    11   ar
     8    36    38   ar
     9    11    28   ar
    10    25    24   ar
    11    38    37   ar
    12    34    31   ar
    13    34    35   ar
    14    28    26    1
    15    28    12   ar
    16    26     9   ar
    17    31    27   ar
    18    37    12   ar
    19    24     4    1
    20    24    23   ar
    21     4    27    1
    22    27    30   ar
    23    35    32   ar
    24    15    13    1
    25     9    23   ar
    26    23     8    1
    27    30    32   ar
    28    30     6    1
    29     6    39    1
    30     8     1    1
    31    18    14   ar
    32    18    21   ar
    33    13    14    1
    34    13    17    1
    35    13    16    1
    36    14    19   ar
    37    21    20   ar
    38    20     1    1
    39    20    22   ar
    40    19    22   ar
    41     1     2    2
    42     1     3    2
@<TRIPOS>MOLECULE
9911482
 30 32 0 0 0
SMALL
GASTEIGER

@<TRIPOS>ATOM
      1 S          -3.6879   -5.3291   -1.9961 S.O2    1  LIG11       0.0758
      2 S          -5.8758   -2.1879   -0.1386 S.2     1  LIG11      -0.0902
      3 O          -6.9538   -5.9821   -3.1323 O.2     1  LIG11      -0.3377
      4 O          -2.7974   -5.5996   -0.8876 O.2     1  LIG11      -0.1499
      5 O          -3.1712   -5.0186   -3.3111 O.2     1  LIG11      -0.1499
      6 O          -5.7127   -5.9271    0.3027 O.2     1  LIG11      -0.2692
      7 O          -7.6245   -4.5638    3.6036 O.2     1  LIG11      -0.2923
      8 N          -5.4363   -4.5712    2.0587 N.am    1  LIG11      -0.2802
      9 N          -4.8201   -6.5904   -2.0868 N.pl3   1  LIG11      -0.1831
     10 N          -7.5421   -6.0383   -4.3833 N.ar    1  LIG11      -0.0810
     11 C          -5.1073   -3.3931    2.7593 C.ar    1  LIG11       0.0471
     12 C          -4.4921   -3.8684   -1.4849 C.ar    1  LIG11       0.1277
     13 C          -3.8112   -2.8478    2.7268 C.ar    1  LIG11      -0.0283
     14 C          -6.1089   -2.7674    3.5316 C.ar    1  LIG11       0.0388
     15 C          -5.1504   -3.7396   -0.2712 C.ar    1  LIG11       0.1007
     16 C          -4.5715   -0.9923    4.1383 C.ar    1  LIG11      -0.0494
     17 C          -3.5687   -1.6355    3.4013 C.ar    1  LIG11      -0.0541
     18 C          -5.8435   -1.5681    4.2032 C.ar    1  LIG11      -0.0466
     19 C          -5.4181   -4.7958    0.6960 C.2     1  LIG11       0.2568
     20 C          -5.6887   -6.4710   -3.2026 C.ar    1  LIG11       0.2399
     21 C          -4.5111   -2.6629   -2.2530 C.ar    1  LIG11      -0.0273
     22 C          -5.4383   -6.9228   -4.4791 C.ar    1  LIG11       0.0350
     23 C          -2.6429   -3.5131    2.0497 C.3     1  LIG11      -0.0379
     24 C          -7.4807   -3.3429    3.5699 C.2     1  LIG11       0.1619
     25 C          -6.6365   -6.6172   -5.1815 C.ar    1  LIG11       0.0854
     26 C          -5.2194   -1.6647   -1.6242 C.ar    1  LIG11      -0.0217
     27 C          -4.3026    0.3137    4.8278 C.3     1  LIG11      -0.0397
     28 C          -4.2349   -7.6078   -5.0032 C.3     1  LIG11      -0.0330
     29 C          -6.9561   -6.8932   -6.6026 C.3     1  LIG11      -0.0188
     30 C          -8.6551   -2.4028    3.5303 C.3     1  LIG11      -0.0013
@<TRIPOS>BOND
     1     1     4    2
     2     1     5    2
     3     1     9    1
     4     1    12    1
     5     2    15   ar
     6     2    26   ar
     7     3    10   ar
     8     3    20   ar
     9     6    19    2
    10     7    24    2
    11     8    11    1
    12     8    19   am
    13     9    20    1
    14    10    25   ar
    15    11    13   ar
    16    11    14   ar
    17    12    15   ar
    18    12    21   ar
    19    13    17   ar
    20    13    23    1
    21    14    18   ar
    22    14    24    1
    23    15    19    1
    24    16    17   ar
    25    16    18   ar
    26    16    27    1
    27    20    22   ar
    28    21    26   ar
    29    22    25   ar
    30    22    28    1
    31    24    30    1
    32    25    29    1
