@<TRIPOS>MOLECULE
BOSENTAN_50CONFORMERS.pdb
 39 42 0 0 0
SMALL
GASTEIGER

@<TRIPOS>ATOM
      1  S1        -2.6800    0.6830    1.1640 S.O2    1  LGD1        0.0943
      2  O2        -3.6470    0.7150    2.2810 O.2     1  LGD1       -0.1483
      3  O3        -1.6560    1.7170    0.9490 O.2     1  LGD1       -0.1483
      4  O4        -2.4670   -2.8890   -0.0130 O.3     1  LGD1       -0.4427
      5  O5        -0.5400   -3.7550   -2.1390 O.3     1  LGD1       -0.4552
      6  O6        -1.4520   -5.5060    0.8680 O.3     1  LGD1       -0.4684
      7  O7        -0.7060   -6.4170   -3.1190 O.3     1  LGD1       -0.2162
      8  N8        -1.7970   -0.6490    1.4540 N.pl3   1  LGD1       -0.0737
      9  N9         0.3320   -0.5010    0.3690 N.ar    1  LGD1       -0.2027
     10  N10        0.9600   -2.1110   -1.3740 N.ar    1  LGD1       -0.1866
     11  N11        3.6490   -1.0730   -1.1010 N.ar    1  LGD1       -0.2224
     12  N12        2.5490    1.0410   -0.5700 N.ar    1  LGD1       -0.2224
     13  C13       -5.2050   -0.5690   -4.3580 C.3     1  LGD1        0.0189
     14  C14       -4.7050   -0.1930   -2.9490 C.ar    1  LGD1       -0.0227
     15  C15       -4.3660   -1.7690   -4.9700 C.3     1  LGD1        0.0044
     16  C16       -5.0370    0.4690   -5.4070 C.3     1  LGD1        0.0044
     17  C17       -6.6710   -0.9630   -4.4050 C.3     1  LGD1        0.0044
     18  C18       -5.5050   -0.2110   -1.7830 C.ar    1  LGD1       -0.0029
     19  C19       -3.3380    0.0550   -2.7740 C.ar    1  LGD1       -0.0029
     20  C20       -3.4780    0.3660   -0.4300 C.ar    1  LGD1        0.1271
     21  C21       -4.8480    0.0070   -0.5390 C.ar    1  LGD1        0.0199
     22  C22       -2.7120    0.4250   -1.6060 C.ar    1  LGD1        0.0199
     23  C23       -0.8360   -1.1500    0.4720 C.ar    1  LGD1        0.2125
     24  C24       -1.1560   -2.3010   -0.2310 C.ar    1  LGD1        0.2327
     25  C25       -0.2200   -2.7350   -1.2290 C.ar    1  LGD1        0.2651
     26  C26        1.2390   -1.0750   -0.5140 C.ar    1  LGD1        0.2028
     27  C27       -2.8490   -4.0780   -0.5980 C.ar    1  LGD1        0.1793
     28  C28        2.5850   -0.3320   -0.7230 C.ar    1  LGD1        0.1990
     29  C29        0.6020   -4.3670   -2.8530 C.3     1  LGD1        0.2426
     30  C30       -2.4150   -5.3520   -0.0960 C.ar    1  LGD1        0.1730
     31  C31       -3.7990   -4.0700   -1.6780 C.ar    1  LGD1        0.0406
     32  C32       -2.9450   -6.5150   -0.7430 C.ar    1  LGD1        0.0401
     33  C33       -0.0230   -5.3210   -3.9020 C.3     1  LGD1        0.2292
     34  C34       -4.3030   -5.2180   -2.2170 C.ar    1  LGD1        0.0033
     35  C35       -3.9160   -6.4400   -1.7650 C.ar    1  LGD1        0.0033
     36  C36        4.8270   -0.4160   -1.3250 C.ar    1  LGD1        0.1023
     37  C37        3.7210    1.7100   -0.8220 C.ar    1  LGD1        0.1023
     38  C38        4.8450    0.9830   -1.2500 C.ar    1  LGD1        0.0414
     39  C39       -2.0250   -5.2490    2.1740 C.3     1  LGD1        0.2526
@<TRIPOS>BOND
     1    33     7    1
     2    33    29    1
     3     5    29    1
     4     5    25    1
     5    10    25   ar
     6    10    26   ar
     7    36    11   ar
     8    36    38   ar
     9    11    28   ar
    10    25    24   ar
    11    38    37   ar
    12    34    31   ar
    13    34    35   ar
    14    28    26    1
    15    28    12   ar
    16    26     9   ar
    17    31    27   ar
    18    37    12   ar
    19    24     4    1
    20    24    23   ar
    21     4    27    1
    22    27    30   ar
    23    35    32   ar
    24    15    13    1
    25     9    23   ar
    26    23     8    1
    27    30    32   ar
    28    30     6    1
    29     6    39    1
    30     8     1    1
    31    18    14   ar
    32    18    21   ar
    33    13    14    1
    34    13    17    1
    35    13    16    1
    36    14    19   ar
    37    21    20   ar
    38    20     1    1
    39    20    22   ar
    40    19    22   ar
    41     1     2    2
    42     1     3    2
@<TRIPOS>MOLECULE
9912992
 34 37 0 0 0
SMALL
GASTEIGER

@<TRIPOS>ATOM
      1 S          -2.5402    0.6220    1.1662 S.O2    1  LIG11       0.0908
      2 O          -2.5370   -2.7352   -0.3242 O.3     1  LIG11      -0.4435
      3 O          -0.8743   -3.2148   -2.6258 O.3     1  LIG11      -0.4771
      4 O          -3.7000    0.5304    2.0315 O.2     1  LIG11      -0.1484
      5 O          -1.6424    1.7552    1.2700 O.2     1  LIG11      -0.1484
      6 O          -0.7787   -4.8077    0.4194 O.3     1  LIG11      -0.4914
      7 N          -1.6823   -0.8180    1.4359 N.pl3   1  LIG11      -0.1950
      8 N           0.3450   -0.6359    0.3100 N.ar    1  LIG11      -0.2073
      9 N           0.7694   -1.8403   -1.6997 N.ar    1  LIG11      -0.1899
     10 N          -2.2291    0.8526   -1.4765 N.ar    1  LIG11      -0.2351
     11 N           5.1283    0.5928   -0.8570 N.ar    1  LIG11      -0.2632
     12 C          -0.8422   -1.2497    0.3746 C.ar    1  LIG11       0.1882
     13 C          -1.2982   -2.1894   -0.5304 C.ar    1  LIG11       0.2307
     14 C          -3.1376    0.5044   -0.5279 C.ar    1  LIG11       0.1969
     15 C          -0.4432   -2.4171   -1.5855 C.ar    1  LIG11       0.2638
     16 C           1.1244   -0.9757   -0.7289 C.ar    1  LIG11       0.1659
     17 C          -4.4028    0.0039   -0.7934 C.ar    1  LIG11      -0.0160
     18 C           2.4869   -0.4165   -0.7861 C.ar    1  LIG11       0.0222
     19 C          -2.7520   -4.0547   -0.6593 C.ar    1  LIG11       0.1702
     20 C          -3.8446    0.1610   -3.1390 C.ar    1  LIG11      -0.0322
     21 C          -4.7535   -0.1735   -2.1295 C.ar    1  LIG11      -0.0541
     22 C          -2.6127    0.6867   -2.7582 C.ar    1  LIG11       0.0327
     23 C          -1.8890   -5.1132   -0.3235 C.ar    1  LIG11       0.1621
     24 C          -3.9490   -4.3024   -1.3392 C.ar    1  LIG11      -0.0157
     25 C          -4.1762   -0.0111   -4.5882 C.3     1  LIG11      -0.0383
     26 C           2.9282    0.5441    0.1352 C.ar    1  LIG11      -0.0329
     27 C           3.4125   -0.8436   -1.7517 C.ar    1  LIG11      -0.0329
     28 C          -2.2243   -6.4091   -0.7292 C.ar    1  LIG11      -0.0163
     29 C          -4.2723   -5.5972   -1.7354 C.ar    1  LIG11      -0.0581
     30 C          -3.4058   -6.6467   -1.4393 C.ar    1  LIG11      -0.0581
     31 C           4.2324    1.0089    0.0618 C.ar    1  LIG11       0.0282
     32 C           4.6965   -0.3223   -1.7460 C.ar    1  LIG11       0.0282
     33 C           0.1985   -3.8462   -3.3143 C.3     1  LIG11       0.0805
     34 C           0.2965   -5.7395    0.3744 C.3     1  LIG11       0.0790
@<TRIPOS>BOND
     1     1     4    2
     2     1     5    2
     3     1     7    1
     4     1    14    1
     5     2    13    1
     6     2    19    1
     7     3    15    1
     8     3    33    1
     9     6    23    1
    10     6    34    1
    11     7    12    1
    12     8    12   ar
    13     8    16   ar
    14     9    15   ar
    15     9    16   ar
    16    10    14   ar
    17    10    22   ar
    18    11    31   ar
    19    11    32   ar
    20    12    13   ar
    21    13    15   ar
    22    14    17   ar
    23    16    18    1
    24    17    21   ar
    25    18    26   ar
    26    18    27   ar
    27    19    23   ar
    28    19    24   ar
    29    20    21   ar
    30    20    22   ar
    31    20    25    1
    32    23    28   ar
    33    24    29   ar
    34    26    31   ar
    35    27    32   ar
    36    28    30   ar
    37    29    30   ar
