@<TRIPOS>MOLECULE
BOSENTAN_50CONFORMERS.pdb
 39 42 0 0 0
SMALL
GASTEIGER

@<TRIPOS>ATOM
      1  S1        -2.2840   -1.7020    2.7920 S.O2    1  LGD1        0.0943
      2  O2        -1.2910   -2.8260    2.7750 O.2     1  LGD1       -0.1483
      3  O3        -2.3930   -0.8070    3.9400 O.2     1  LGD1       -0.1483
      4  O4        -2.4010   -2.8690   -0.1560 O.3     1  LGD1       -0.4427
      5  O5        -0.5180   -3.7820   -2.1180 O.3     1  LGD1       -0.4552
      6  O6        -3.7020   -5.1000   -1.0030 O.3     1  LGD1       -0.4684
      7  O7        -0.3340   -6.6490   -3.2110 O.3     1  LGD1       -0.2162
      8  N8        -1.7980   -0.6550    1.4700 N.pl3   1  LGD1       -0.0737
      9  N9         0.3470   -0.5780    0.4120 N.ar    1  LGD1       -0.2027
     10  N10        0.9650   -2.0960   -1.4250 N.ar    1  LGD1       -0.1866
     11  N11        2.8510    0.3790   -1.5520 N.ar    1  LGD1       -0.2224
     12  N12        3.4200   -0.7910    0.5080 N.ar    1  LGD1       -0.2224
     13  C13       -7.9070   -3.8870    2.0180 C.3     1  LGD1        0.0189
     14  C14       -6.5130   -3.3220    2.1770 C.ar    1  LGD1       -0.0227
     15  C15       -7.9750   -5.3620    1.5490 C.3     1  LGD1        0.0044
     16  C16       -8.7610   -3.2350    0.9520 C.3     1  LGD1        0.0044
     17  C17       -8.7090   -3.7420    3.2610 C.3     1  LGD1        0.0044
     18  C18       -6.0430   -2.2760    1.3750 C.ar    1  LGD1       -0.0029
     19  C19       -5.6600   -3.9500    3.0900 C.ar    1  LGD1       -0.0029
     20  C20       -3.9310   -2.3680    2.5310 C.ar    1  LGD1        0.1271
     21  C21       -4.7710   -1.7290    1.6020 C.ar    1  LGD1        0.0199
     22  C22       -4.3530   -3.4990    3.2810 C.ar    1  LGD1        0.0199
     23  C23       -0.8750   -1.0970    0.4740 C.ar    1  LGD1        0.2125
     24  C24       -1.1340   -2.2520   -0.2660 C.ar    1  LGD1        0.2327
     25  C25       -0.2040   -2.7310   -1.1970 C.ar    1  LGD1        0.2651
     26  C26        1.1990   -1.0880   -0.5410 C.ar    1  LGD1        0.2028
     27  C27       -3.3770   -2.7360   -1.1750 C.ar    1  LGD1        0.1793
     28  C28        2.6320   -0.5100   -0.5510 C.ar    1  LGD1        0.1990
     29  C29        0.5360   -4.4480   -2.8430 C.3     1  LGD1        0.2426
     30  C30       -4.0330   -3.9020   -1.6140 C.ar    1  LGD1        0.1730
     31  C31       -3.8180   -1.5030   -1.6590 C.ar    1  LGD1        0.0406
     32  C32       -4.9260   -3.8420   -2.6810 C.ar    1  LGD1        0.0401
     33  C33       -0.1530   -5.3780   -3.8670 C.3     1  LGD1        0.2292
     34  C34       -4.9050   -1.4360   -2.5290 C.ar    1  LGD1        0.0033
     35  C35       -5.3980   -2.6190   -3.1380 C.ar    1  LGD1        0.0033
     36  C36        3.9750    1.1460   -1.4440 C.ar    1  LGD1        0.1023
     37  C37        4.6250   -0.1930    0.5720 C.ar    1  LGD1        0.1023
     38  C38        4.8680    0.8060   -0.3410 C.ar    1  LGD1        0.0414
     39  C39       -4.7230   -5.5850   -0.2030 C.3     1  LGD1        0.2526
@<TRIPOS>BOND
     1    33     7    1
     2    33    29    1
     3     5    29    1
     4     5    25    1
     5    10    25   ar
     6    10    26   ar
     7    36    11   ar
     8    36    38   ar
     9    11    28   ar
    10    25    24   ar
    11    38    37   ar
    12    34    31   ar
    13    34    35   ar
    14    28    26    1
    15    28    12   ar
    16    26     9   ar
    17    31    27   ar
    18    37    12   ar
    19    24     4    1
    20    24    23   ar
    21     4    27    1
    22    27    30   ar
    23    35    32   ar
    24    15    13    1
    25     9    23   ar
    26    23     8    1
    27    30    32   ar
    28    30     6    1
    29     6    39    1
    30     8     1    1
    31    18    14   ar
    32    18    21   ar
    33    13    14    1
    34    13    17    1
    35    13    16    1
    36    14    19   ar
    37    21    20   ar
    38    20     1    1
    39    20    22   ar
    40    19    22   ar
    41     1     2    2
    42     1     3    2
@<TRIPOS>MOLECULE
156690
 38 41 0 0 0
SMALL
GASTEIGER

@<TRIPOS>ATOM
      1 S          -3.3211    0.0474    0.0288 S.O2    1  LIG11       0.0741
      2 O          -7.6656   -5.9586    0.6726 O.2     1  LIG11      -0.2756
      3 O          -4.0124    0.0989    1.3020 O.2     1  LIG11      -0.1499
      4 O          -3.2379    1.2373   -0.7881 O.2     1  LIG11      -0.1499
      5 O          -6.8380   -4.1538    5.5187 O.2     1  LIG11      -0.4436
      6 O          -0.0268   -1.4057   -2.5802 O.2     1  LIG11      -0.3578
      7 N          -8.5847   -3.8857    1.0172 N.am    1  LIG11      -0.3002
      8 N          -1.7530   -0.5239    0.3468 N.pl3   1  LIG11      -0.1965
      9 N          -4.8979   -3.2456    6.2343 N.ar    1  LIG11      -0.2175
     10 N          -0.6964   -0.4913   -1.7959 N.ar    1  LIG11      -0.0614
     11 C          -9.7755   -7.4386    2.0810 C.3     1  LIG11      -0.0295
     12 C          -9.8034   -5.9111    1.8050 C.3     1  LIG11       0.0290
     13 C          -8.6031   -7.8256    2.9987 C.3     1  LIG11      -0.0596
     14 C          -9.7168   -8.2558    0.7802 C.3     1  LIG11      -0.0596
     15 C         -11.0879   -7.8062    2.8104 C.3     1  LIG11      -0.0596
     16 C          -8.5936   -5.2807    1.1130 C.2     1  LIG11       0.2161
     17 C          -7.3861   -3.2357    0.4695 C.3     1  LIG11       0.0400
     18 C          -6.2081   -3.1216    1.4387 C.ar    1  LIG11      -0.0216
     19 C          -4.8981   -2.7670    1.0002 C.ar    1  LIG11      -0.0113
     20 C          -4.5628   -2.4797   -0.4263 C.ar    1  LIG11       0.0090
     21 C          -9.6781   -3.0024    1.3996 C.3     1  LIG11       0.0035
     22 C          -6.4325   -3.3572    2.8206 C.ar    1  LIG11      -0.0442
     23 C          -4.0247   -1.2797   -0.9563 C.ar    1  LIG11       0.1162
     24 C          -3.8835   -2.7566    1.9749 C.ar    1  LIG11      -0.0529
     25 C          -5.4130   -3.2867    3.7750 C.ar    1  LIG11       0.0372
     26 C          -4.1308   -2.9844    3.3329 C.ar    1  LIG11      -0.0489
     27 C          -4.7941   -3.5124   -1.3651 C.ar    1  LIG11      -0.0521
     28 C          -3.9049   -1.0912   -2.3519 C.ar    1  LIG11      -0.0345
     29 C          -4.6426   -3.3317   -2.7443 C.ar    1  LIG11      -0.0611
     30 C          -5.6608   -3.5258    5.1931 C.ar    1  LIG11       0.2271
     31 C          -4.2239   -2.1090   -3.2411 C.ar    1  LIG11      -0.0599
     32 C          -1.0209   -1.1323   -0.6719 C.ar    1  LIG11       0.1837
     33 C          -0.5488   -2.4765   -0.6886 C.ar    1  LIG11       0.0342
     34 C           0.0468   -2.5931   -1.9281 C.ar    1  LIG11       0.1390
     35 C          -0.7269   -3.5550    0.3081 C.3     1  LIG11      -0.0330
     36 C          -6.7933   -4.2645    6.8747 C.ar    1  LIG11       0.1125
     37 C          -5.6219   -3.6991    7.3075 C.ar    1  LIG11       0.0663
     38 C           0.6757   -3.7041   -2.6691 C.3     1  LIG11      -0.0034
@<TRIPOS>BOND
     1     1     3    2
     2     1     4    2
     3     1     8    1
     4     1    23    1
     5     2    16    2
     6     5    30   ar
     7     5    36   ar
     8     6    10   ar
     9     6    34   ar
    10     7    16   am
    11     7    17    1
    12     7    21    1
    13     8    32    1
    14     9    30   ar
    15     9    37   ar
    16    10    32   ar
    17    11    12    1
    18    11    13    1
    19    11    14    1
    20    11    15    1
    21    12    16    1
    22    17    18    1
    23    18    19   ar
    24    18    22   ar
    25    19    20    1
    26    19    24   ar
    27    20    23   ar
    28    20    27   ar
    29    22    25   ar
    30    23    28   ar
    31    24    26   ar
    32    25    26   ar
    33    25    30    1
    34    27    29   ar
    35    28    31   ar
    36    29    31   ar
    37    32    33   ar
    38    33    34   ar
    39    33    35    1
    40    34    38    1
    41    36    37   ar
