@<TRIPOS>MOLECULE
BOSENTAN_50CONFORMERS.pdb
 39 42 0 0 0
SMALL
GASTEIGER

@<TRIPOS>ATOM
      1  S1        -1.4490   -0.0940    2.9560 S.O2    1  LGD1        0.0943
      2  O2        -0.6240    1.1470    2.7880 O.2     1  LGD1       -0.1483
      3  O3        -2.8460   -0.0310    3.4150 O.2     1  LGD1       -0.1483
      4  O4        -2.3840   -2.7850   -0.2570 O.3     1  LGD1       -0.4427
      5  O5        -0.5460   -3.7510   -2.1030 O.3     1  LGD1       -0.4552
      6  O6        -0.6450   -4.8040    0.7750 O.3     1  LGD1       -0.4684
      7  O7        -0.8830   -5.5220   -4.4490 O.3     1  LGD1       -0.2162
      8  N8        -1.7980   -0.6580    1.3530 N.pl3   1  LGD1       -0.0737
      9  N9         0.4100   -0.5470    0.4560 N.ar    1  LGD1       -0.2027
     10  N10        0.9550   -2.1210   -1.3620 N.ar    1  LGD1       -0.1866
     11  N11        2.6830    0.7690    0.1300 N.ar    1  LGD1       -0.2224
     12  N12        3.2310   -0.6310   -1.8090 N.ar    1  LGD1       -0.2224
     13  C13        1.2750   -4.7890    5.8630 C.3     1  LGD1        0.0189
     14  C14        0.5530   -3.7060    5.0390 C.ar    1  LGD1       -0.0227
     15  C15        2.5330   -5.3980    5.1060 C.3     1  LGD1        0.0044
     16  C16        0.4010   -5.9280    6.3500 C.3     1  LGD1        0.0044
     17  C17        1.9010   -4.1580    7.1590 C.3     1  LGD1        0.0044
     18  C18       -0.8360   -3.7170    4.7560 C.ar    1  LGD1       -0.0029
     19  C19        1.3090   -2.5880    4.6180 C.ar    1  LGD1       -0.0029
     20  C20       -0.6790   -1.5150    3.7350 C.ar    1  LGD1        0.1271
     21  C21       -1.4510   -2.6580    4.0750 C.ar    1  LGD1        0.0199
     22  C22        0.6770   -1.5660    3.9610 C.ar    1  LGD1        0.0199
     23  C23       -0.8380   -1.1710    0.5840 C.ar    1  LGD1        0.2125
     24  C24       -1.1500   -2.2740   -0.3100 C.ar    1  LGD1        0.2327
     25  C25       -0.2310   -2.7580   -1.2060 C.ar    1  LGD1        0.2651
     26  C26        1.1800   -0.9970   -0.6040 C.ar    1  LGD1        0.2028
     27  C27       -2.7950   -3.6620    0.7790 C.ar    1  LGD1        0.1793
     28  C28        2.5110   -0.2550   -0.7330 C.ar    1  LGD1        0.1990
     29  C29        0.4960   -4.6320   -2.5040 C.3     1  LGD1        0.2426
     30  C30       -1.8980   -4.5650    1.3390 C.ar    1  LGD1        0.1730
     31  C31       -4.1250   -3.6780    1.1760 C.ar    1  LGD1        0.0406
     32  C32       -2.4090   -5.4000    2.3060 C.ar    1  LGD1        0.0401
     33  C33       -0.1650   -5.8480   -3.1830 C.3     1  LGD1        0.2292
     34  C34       -4.6090   -4.5870    2.0420 C.ar    1  LGD1        0.0033
     35  C35       -3.7710   -5.4980    2.6050 C.ar    1  LGD1        0.0033
     36  C36        3.9140    1.3700    0.0300 C.ar    1  LGD1        0.1023
     37  C37        4.4240    0.0080   -1.9080 C.ar    1  LGD1        0.1023
     38  C38        4.7880    0.9720   -0.9580 C.ar    1  LGD1        0.0414
     39  C39        0.4930   -4.7900    1.6810 C.3     1  LGD1        0.2526
@<TRIPOS>BOND
     1    33     7    1
     2    33    29    1
     3     5    29    1
     4     5    25    1
     5    10    25   ar
     6    10    26   ar
     7    36    11   ar
     8    36    38   ar
     9    11    28   ar
    10    25    24   ar
    11    38    37   ar
    12    34    31   ar
    13    34    35   ar
    14    28    26    1
    15    28    12   ar
    16    26     9   ar
    17    31    27   ar
    18    37    12   ar
    19    24     4    1
    20    24    23   ar
    21     4    27    1
    22    27    30   ar
    23    35    32   ar
    24    15    13    1
    25     9    23   ar
    26    23     8    1
    27    30    32   ar
    28    30     6    1
    29     6    39    1
    30     8     1    1
    31    18    14   ar
    32    18    21   ar
    33    13    14    1
    34    13    17    1
    35    13    16    1
    36    14    19   ar
    37    21    20   ar
    38    20     1    1
    39    20    22   ar
    40    19    22   ar
    41     1     2    2
    42     1     3    2
@<TRIPOS>MOLECULE
108002
 38 42 0 0 0
SMALL
GASTEIGER

@<TRIPOS>ATOM
      1 O           1.7057   -6.1602    1.6517 O.co2   1  LIG11      -0.5495
      2 O           0.4593   -5.9486   -0.2407 O.co2   1  LIG11      -0.5495
      3 O           1.0520   -0.2028    5.7803 O.3     1  LIG11      -0.4920
      4 O           4.0484   -2.0958    1.3838 O.3     1  LIG11      -0.4858
      5 O          -4.8271   -6.9051    3.4152 O.3     1  LIG11      -0.4526
      6 O          -6.0507   -5.5454    1.8388 O.3     1  LIG11      -0.4526
      7 O           2.5927    0.8989   -2.0545 O.3     1  LIG11      -0.4950
      8 O           7.4780   -2.7017    1.7010 O.co2   1  LIG11      -0.5463
      9 O           6.1748   -1.7390    3.3065 O.co2   1  LIG11      -0.5463
     10 C           0.3613   -4.2180    1.3492 C.3     1  LIG11       0.0203
     11 C           1.4298   -3.1772    1.8148 C.3     1  LIG11       0.0218
     12 C          -0.5284   -4.5668    2.5707 C.3     1  LIG11       0.0184
     13 C           0.7904   -2.6183    3.0765 C.ar    1  LIG11      -0.0320
     14 C          -0.3029   -3.3840    3.4832 C.ar    1  LIG11      -0.0353
     15 C          -2.0111   -4.8089    2.2867 C.ar    1  LIG11      -0.0356
     16 C           1.7405   -2.0789    0.7850 C.ar    1  LIG11       0.0026
     17 C           0.9209   -5.5565    0.8741 C.2     1  LIG11       0.0466
     18 C           1.2260   -1.5481    3.8576 C.ar    1  LIG11      -0.0159
     19 C          -0.9665   -3.1036    4.6713 C.ar    1  LIG11      -0.0542
     20 C           0.5369   -1.2301    5.0349 C.ar    1  LIG11       0.1208
     21 C           3.0523   -1.6013    0.5704 C.ar    1  LIG11       0.1283
     22 C          -2.6811   -5.8218    3.0003 C.ar    1  LIG11      -0.0124
     23 C          -2.7518   -4.0082    1.3847 C.ar    1  LIG11      -0.0543
     24 C          -0.5408   -2.0251    5.4478 C.ar    1  LIG11      -0.0196
     25 C           0.6933   -1.4841    0.0484 C.ar    1  LIG11      -0.0510
     26 C          -4.0328   -5.9946    2.7887 C.ar    1  LIG11       0.1665
     27 C          -4.1189   -4.2184    1.1741 C.ar    1  LIG11      -0.0159
     28 C           3.2726   -0.6168   -0.4110 C.ar    1  LIG11       0.0221
     29 C           0.9288   -0.5008   -0.9158 C.ar    1  LIG11      -0.0194
     30 C          -4.7311   -5.2167    1.8959 C.ar    1  LIG11       0.1662
     31 C           2.2234   -0.0620   -1.1497 C.ar    1  LIG11       0.1236
     32 C           0.1106    0.6375    6.4472 C.3     1  LIG11       0.0893
     33 C          -6.0928   -6.6297    2.7874 C.3     1  LIG11       0.2332
     34 C           5.4062   -1.7514    1.0369 C.3     1  LIG11       0.1287
     35 C           0.8077    1.2464    7.6617 C.3     1  LIG11      -0.0215
     36 C           6.4205   -2.1430    2.1320 C.2     1  LIG11       0.0789
     37 C           1.5399    1.6358   -2.6589 C.3     1  LIG11       0.0788
     38 C          -0.1465    2.0639    8.5151 C.3     1  LIG11      -0.0622
@<TRIPOS>BOND
     1     1    17   ar
     2     2    17   ar
     3     3    20    1
     4     3    32    1
     5     4    21    1
     6     4    34    1
     7     5    26    1
     8     5    33    1
     9     6    30    1
    10     6    33    1
    11     7    31    1
    12     7    37    1
    13     8    36   ar
    14     9    36   ar
    15    10    11    1
    16    10    12    1
    17    10    17    1
    18    11    13    1
    19    11    16    1
    20    12    14    1
    21    12    15    1
    22    13    14   ar
    23    13    18   ar
    24    14    19   ar
    25    15    22   ar
    26    15    23   ar
    27    16    21   ar
    28    16    25   ar
    29    18    20   ar
    30    19    24   ar
    31    20    24   ar
    32    21    28   ar
    33    22    26   ar
    34    23    27   ar
    35    25    29   ar
    36    26    30   ar
    37    27    30   ar
    38    28    31   ar
    39    29    31   ar
    40    32    35    1
    41    34    36    1
    42    35    38    1
