@<TRIPOS>MOLECULE
BOSENTAN_50CONFORMERS.pdb
 39 42 0 0 0
SMALL
GASTEIGER

@<TRIPOS>ATOM
      1  S1        -2.6800    0.6830    1.1640 S.O2    1  LGD1        0.0943
      2  O2        -3.6470    0.7150    2.2810 O.2     1  LGD1       -0.1483
      3  O3        -1.6560    1.7170    0.9490 O.2     1  LGD1       -0.1483
      4  O4        -2.4670   -2.8890   -0.0130 O.3     1  LGD1       -0.4427
      5  O5        -0.5400   -3.7550   -2.1390 O.3     1  LGD1       -0.4552
      6  O6        -1.4520   -5.5060    0.8680 O.3     1  LGD1       -0.4684
      7  O7        -0.7060   -6.4170   -3.1190 O.3     1  LGD1       -0.2162
      8  N8        -1.7970   -0.6490    1.4540 N.pl3   1  LGD1       -0.0737
      9  N9         0.3320   -0.5010    0.3690 N.ar    1  LGD1       -0.2027
     10  N10        0.9600   -2.1110   -1.3740 N.ar    1  LGD1       -0.1866
     11  N11        3.6490   -1.0730   -1.1010 N.ar    1  LGD1       -0.2224
     12  N12        2.5490    1.0410   -0.5700 N.ar    1  LGD1       -0.2224
     13  C13       -5.2050   -0.5690   -4.3580 C.3     1  LGD1        0.0189
     14  C14       -4.7050   -0.1930   -2.9490 C.ar    1  LGD1       -0.0227
     15  C15       -4.3660   -1.7690   -4.9700 C.3     1  LGD1        0.0044
     16  C16       -5.0370    0.4690   -5.4070 C.3     1  LGD1        0.0044
     17  C17       -6.6710   -0.9630   -4.4050 C.3     1  LGD1        0.0044
     18  C18       -5.5050   -0.2110   -1.7830 C.ar    1  LGD1       -0.0029
     19  C19       -3.3380    0.0550   -2.7740 C.ar    1  LGD1       -0.0029
     20  C20       -3.4780    0.3660   -0.4300 C.ar    1  LGD1        0.1271
     21  C21       -4.8480    0.0070   -0.5390 C.ar    1  LGD1        0.0199
     22  C22       -2.7120    0.4250   -1.6060 C.ar    1  LGD1        0.0199
     23  C23       -0.8360   -1.1500    0.4720 C.ar    1  LGD1        0.2125
     24  C24       -1.1560   -2.3010   -0.2310 C.ar    1  LGD1        0.2327
     25  C25       -0.2200   -2.7350   -1.2290 C.ar    1  LGD1        0.2651
     26  C26        1.2390   -1.0750   -0.5140 C.ar    1  LGD1        0.2028
     27  C27       -2.8490   -4.0780   -0.5980 C.ar    1  LGD1        0.1793
     28  C28        2.5850   -0.3320   -0.7230 C.ar    1  LGD1        0.1990
     29  C29        0.6020   -4.3670   -2.8530 C.3     1  LGD1        0.2426
     30  C30       -2.4150   -5.3520   -0.0960 C.ar    1  LGD1        0.1730
     31  C31       -3.7990   -4.0700   -1.6780 C.ar    1  LGD1        0.0406
     32  C32       -2.9450   -6.5150   -0.7430 C.ar    1  LGD1        0.0401
     33  C33       -0.0230   -5.3210   -3.9020 C.3     1  LGD1        0.2292
     34  C34       -4.3030   -5.2180   -2.2170 C.ar    1  LGD1        0.0033
     35  C35       -3.9160   -6.4400   -1.7650 C.ar    1  LGD1        0.0033
     36  C36        4.8270   -0.4160   -1.3250 C.ar    1  LGD1        0.1023
     37  C37        3.7210    1.7100   -0.8220 C.ar    1  LGD1        0.1023
     38  C38        4.8450    0.9830   -1.2500 C.ar    1  LGD1        0.0414
     39  C39       -2.0250   -5.2490    2.1740 C.3     1  LGD1        0.2526
@<TRIPOS>BOND
     1    33     7    1
     2    33    29    1
     3     5    29    1
     4     5    25    1
     5    10    25   ar
     6    10    26   ar
     7    36    11   ar
     8    36    38   ar
     9    11    28   ar
    10    25    24   ar
    11    38    37   ar
    12    34    31   ar
    13    34    35   ar
    14    28    26    1
    15    28    12   ar
    16    26     9   ar
    17    31    27   ar
    18    37    12   ar
    19    24     4    1
    20    24    23   ar
    21     4    27    1
    22    27    30   ar
    23    35    32   ar
    24    15    13    1
    25     9    23   ar
    26    23     8    1
    27    30    32   ar
    28    30     6    1
    29     6    39    1
    30     8     1    1
    31    18    14   ar
    32    18    21   ar
    33    13    14    1
    34    13    17    1
    35    13    16    1
    36    14    19   ar
    37    21    20   ar
    38    20     1    1
    39    20    22   ar
    40    19    22   ar
    41     1     2    2
    42     1     3    2
@<TRIPOS>MOLECULE
2-[[2-[2-butyl-4-[(Z)-2-carboxy-3-(6-methoxy-1,3-benzodioxol-5-yl)prop-1-enyl]pyrazol-3-yl]-5-methoxyphenoxy]methyl]benzoic acid
 45 49 0 0 0
SMALL
GASTEIGER

@<TRIPOS>ATOM
      1 O          -3.0544   -2.1136   -2.3705 O.3     1  LIG11      -0.4866
      2 O           5.2119   -0.8714   -0.6501 O.3     1  LIG11      -0.4526
      3 O           7.0813    0.4145   -1.4699 O.3     1  LIG11      -0.4525
      4 O           4.1919    4.2183   -2.4267 O.3     1  LIG11      -0.4947
      5 O          -6.5266   -0.3921    0.6027 O.3     1  LIG11      -0.4950
      6 O           1.3768    3.5879    1.3017 O.co2   1  LIG11      -0.5449
      7 O           1.0413    1.3436    1.5837 O.co2   1  LIG11      -0.5449
      8 O          -5.3734   -4.5142   -4.8992 O.co2   1  LIG11      -0.5446
      9 O          -4.6854   -6.6501   -5.1685 O.co2   1  LIG11      -0.5446
     10 N          -1.9089    0.6045   -3.9701 N.ar    1  LIG11      -0.2630
     11 N          -1.1679    1.5900   -4.5220 N.ar    1  LIG11      -0.1785
     12 C          -1.9344    0.6529   -2.5801 C.ar    1  LIG11       0.0795
     13 C          -2.3554   -0.4535   -4.8540 C.3     1  LIG11       0.0422
     14 C          -2.8518   -0.0266   -6.2395 C.3     1  LIG11      -0.0336
     15 C          -0.8277    1.4584   -2.2642 C.ar    1  LIG11       0.0207
     16 C          -3.0678    0.2021   -1.7262 C.ar    1  LIG11       0.0425
     17 C          -4.2334    0.6309   -6.2250 C.3     1  LIG11      -0.0542
     18 C          -0.5093    2.0926   -3.4823 C.ar    1  LIG11       0.0571
     19 C          -0.2693    1.6870   -0.9587 C.2     1  LIG11      -0.0459
     20 C           1.9904    2.8667   -1.4526 C.3     1  LIG11       0.0029
     21 C          -3.6763   -1.0713   -1.7205 C.ar    1  LIG11       0.1336
     22 C           0.9020    2.2657   -0.6046 C.2     1  LIG11      -0.0200
     23 C           3.3769    2.2309   -1.4190 C.ar    1  LIG11       0.0023
     24 C          -3.6434    1.1962   -0.9037 C.ar    1  LIG11      -0.0456
     25 C          -5.3268   -0.2789   -5.6801 C.3     1  LIG11      -0.0652
     26 C          -4.8424   -1.2947   -0.9530 C.ar    1  LIG11       0.0224
     27 C           4.4840    2.9659   -1.9415 C.ar    1  LIG11       0.1273
     28 C           3.5743    0.9092   -0.9752 C.ar    1  LIG11      -0.0092
     29 C          -4.7791    0.9550   -0.1280 C.ar    1  LIG11      -0.0191
     30 C           4.8483    0.3842   -1.0277 C.ar    1  LIG11       0.1667
     31 C          -5.4045   -0.2823   -0.1739 C.ar    1  LIG11       0.1236
     32 C           5.9124    1.1140   -1.4999 C.ar    1  LIG11       0.1697
     33 C           5.7666    2.4030   -1.9622 C.ar    1  LIG11       0.0258
     34 C           1.1359    2.4089    0.9117 C.2     1  LIG11       0.0680
     35 C          -3.9082   -3.0900   -3.0185 C.3     1  LIG11       0.1153
     36 C           6.6242   -0.8371   -0.9148 C.3     1  LIG11       0.2332
     37 C          -3.9148   -4.4528   -2.3437 C.ar    1  LIG11      -0.0016
     38 C          -4.3331   -5.6136   -3.0481 C.ar    1  LIG11       0.0037
     39 C          -3.5150   -4.5828   -0.9992 C.ar    1  LIG11      -0.0547
     40 C           5.2451    4.9564   -3.0253 C.3     1  LIG11       0.0788
     41 C          -4.2896   -6.8582   -2.3860 C.ar    1  LIG11      -0.0525
     42 C          -3.5123   -5.8217   -0.3578 C.ar    1  LIG11      -0.0614
     43 C          -7.3875   -1.4865    0.3088 C.3     1  LIG11       0.0788
     44 C          -3.8904   -6.9620   -1.0542 C.ar    1  LIG11      -0.0611
     45 C          -4.8264   -5.5835   -4.4873 C.2     1  LIG11       0.0720
@<TRIPOS>BOND
     1     1    35    1
     2     1    21    1
     3     2    36    1
     4     2    30    1
     5     3    32    1
     6     3    36    1
     7     4    27    1
     8     4    40    1
     9     5    31    1
    10     5    43    1
    11     6    34   ar
    12     7    34   ar
    13     8    45   ar
    14     9    45   ar
    15    10    11   ar
    16    10    12   ar
    17    10    13    1
    18    11    18   ar
    19    12    15   ar
    20    13    14    1
    21    14    17    1
    22    15    18   ar
    23    15    19    1
    24    16    24   ar
    25    16    21   ar
    26    16    12    1
    27    17    25    1
    28    19    22    2
    29    20    22    1
    30    20    23    1
    31    21    26   ar
    32    22    34    1
    33    23    28   ar
    34    23    27   ar
    35    24    29   ar
    36    26    31   ar
    37    27    33   ar
    38    28    30   ar
    39    29    31   ar
    40    30    32   ar
    41    32    33   ar
    42    35    37    1
    43    37    39   ar
    44    37    38   ar
    45    38    41   ar
    46    38    45    1
    47    39    42   ar
    48    41    44   ar
    49    42    44   ar
