@<TRIPOS>MOLECULE
BOSENTAN_50CONFORMERS.pdb
 39 42 0 0 0
SMALL
GASTEIGER

@<TRIPOS>ATOM
      1  S1        -1.4540    0.1350    2.8770 S.O2    1  LGD1        0.0943
      2  O2        -0.4470   -0.7320    3.5100 O.2     1  LGD1       -0.1483
      3  O3        -1.1360    1.5320    2.4670 O.2     1  LGD1       -0.1483
      4  O4        -2.4110   -2.7360   -0.2730 O.3     1  LGD1       -0.4427
      5  O5        -0.5950   -3.8040   -2.0130 O.3     1  LGD1       -0.4552
      6  O6        -4.9930   -2.6790    0.8890 O.3     1  LGD1       -0.4684
      7  O7        -0.8270   -6.9230   -2.0170 O.3     1  LGD1       -0.2162
      8  N8        -1.8590   -0.6640    1.3890 N.pl3   1  LGD1       -0.0737
      9  N9         0.4300   -0.6670    0.4910 N.ar    1  LGD1       -0.2027
     10  N10        0.9940   -2.0320   -1.4390 N.ar    1  LGD1       -0.1866
     11  N11        2.7460    0.3150   -1.9570 N.ar    1  LGD1       -0.2224
     12  N12        3.2800   -0.2760    0.3910 N.ar    1  LGD1       -0.2224
     13  C13       -6.6430    0.0540    6.2240 C.3     1  LGD1        0.0189
     14  C14       -5.3760    0.0310    5.4090 C.ar    1  LGD1       -0.0227
     15  C15       -7.0060   -1.3190    6.8340 C.3     1  LGD1        0.0044
     16  C16       -7.8140    0.5500    5.3550 C.3     1  LGD1        0.0044
     17  C17       -6.5440    1.0780    7.3190 C.3     1  LGD1        0.0044
     18  C18       -4.9740    1.1330    4.6920 C.ar    1  LGD1       -0.0029
     19  C19       -4.5800   -1.1010    5.2480 C.ar    1  LGD1       -0.0029
     20  C20       -3.0040    0.0570    3.8580 C.ar    1  LGD1        0.1271
     21  C21       -3.7460    1.2330    4.0600 C.ar    1  LGD1        0.0199
     22  C22       -3.4560   -1.1520    4.3510 C.ar    1  LGD1        0.0199
     23  C23       -0.8670   -1.1600    0.5400 C.ar    1  LGD1        0.2125
     24  C24       -1.1210   -2.1950   -0.3360 C.ar    1  LGD1        0.2327
     25  C25       -0.1810   -2.7470   -1.2100 C.ar    1  LGD1        0.2651
     26  C26        1.1810   -1.0080   -0.6150 C.ar    1  LGD1        0.2028
     27  C27       -3.4650   -2.3120   -1.0420 C.ar    1  LGD1        0.1793
     28  C28        2.5460   -0.3110   -0.7600 C.ar    1  LGD1        0.1990
     29  C29        0.3230   -4.8710   -2.0790 C.3     1  LGD1        0.2426
     30  C30       -4.7730   -2.3660   -0.4830 C.ar    1  LGD1        0.1730
     31  C31       -3.2360   -1.6370   -2.2440 C.ar    1  LGD1        0.0406
     32  C32       -5.8020   -1.8680   -1.3660 C.ar    1  LGD1        0.0401
     33  C33       -0.0890   -6.1170   -2.8760 C.3     1  LGD1        0.2292
     34  C34       -4.2080   -1.0020   -3.0290 C.ar    1  LGD1        0.0033
     35  C35       -5.4860   -1.2960   -2.6440 C.ar    1  LGD1        0.0033
     36  C36        3.9100    1.0220   -2.0730 C.ar    1  LGD1        0.1023
     37  C37        4.5070    0.3110    0.2100 C.ar    1  LGD1        0.1023
     38  C38        4.7710    0.9960   -0.9790 C.ar    1  LGD1        0.0414
     39  C39       -5.6270   -1.6200    1.6780 C.3     1  LGD1        0.2526
@<TRIPOS>BOND
     1    33     7    1
     2    33    29    1
     3     5    29    1
     4     5    25    1
     5    10    25   ar
     6    10    26   ar
     7    36    11   ar
     8    36    38   ar
     9    11    28   ar
    10    25    24   ar
    11    38    37   ar
    12    34    31   ar
    13    34    35   ar
    14    28    26    1
    15    28    12   ar
    16    26     9   ar
    17    31    27   ar
    18    37    12   ar
    19    24     4    1
    20    24    23   ar
    21     4    27    1
    22    27    30   ar
    23    35    32   ar
    24    15    13    1
    25     9    23   ar
    26    23     8    1
    27    30    32   ar
    28    30     6    1
    29     6    39    1
    30     8     1    1
    31    18    14   ar
    32    18    21   ar
    33    13    14    1
    34    13    17    1
    35    13    16    1
    36    14    19   ar
    37    21    20   ar
    38    20     1    1
    39    20    22   ar
    40    19    22   ar
    41     1     2    2
    42     1     3    2
@<TRIPOS>MOLECULE
9939443
 43 47 0 0 0
SMALL
GASTEIGER

@<TRIPOS>ATOM
      1 S          -1.6540    0.4963    2.2783 S.O2    1  LIG11       0.0908
      2 O          -2.3374   -2.3307    0.0403 O.3     1  LIG11      -0.4435
      3 O          -0.6965    1.2680    3.0486 O.2     1  LIG11      -0.1484
      4 O          -2.1295    0.9622    0.9943 O.2     1  LIG11      -0.1484
      5 O          -0.7176   -2.9441   -2.2797 O.3     1  LIG11      -0.4715
      6 O          -2.1766   -0.1316   -1.8277 O.3     1  LIG11      -0.4914
      7 O          -2.5953   -5.0701   -3.2417 O.3     1  LIG11      -0.3917
      8 N          -0.9787   -1.0615    2.1714 N.pl3   1  LIG11      -0.1950
      9 N          -3.7861   -0.8860    3.0941 N.ar    1  LIG11      -0.2351
     10 N           0.8870   -0.8785    0.8583 N.ar    1  LIG11      -0.2073
     11 N           1.0205   -1.7524   -1.3523 N.ar    1  LIG11      -0.1899
     12 N           5.1277    1.2160   -0.8144 N.ar    1  LIG11      -0.2552
     13 N           5.9713    1.9853   -3.4487 N.ar    1  LIG11      -0.5621
     14 N           4.2898    0.7989   -4.3855 N.ar    1  LIG11      -0.1535
     15 N           5.9311    2.0553   -4.7831 N.ar    1  LIG11      -0.3597
     16 N           4.9547    1.3656   -5.3818 N.ar    1  LIG11      -0.0878
     17 C          -6.5297   -0.5085    5.6885 C.3     1  LIG11      -0.0201
     18 C          -5.2704   -0.2126    4.8995 C.ar    1  LIG11      -0.0266
     19 C          -7.7088    0.2825    5.1174 C.3     1  LIG11      -0.0586
     20 C          -6.3828   -0.2456    7.1903 C.3     1  LIG11      -0.0586
     21 C          -3.0840    0.2524    3.3272 C.ar    1  LIG11       0.1969
     22 C          -4.4948    0.9350    5.1109 C.ar    1  LIG11      -0.0535
     23 C          -4.8688   -1.0777    3.8778 C.ar    1  LIG11       0.0332
     24 C          -3.3765    1.1755    4.3185 C.ar    1  LIG11      -0.0160
     25 C          -0.3783   -1.3182    0.9085 C.ar    1  LIG11       0.1882
     26 C          -1.0428   -1.9422   -0.1210 C.ar    1  LIG11       0.2307
     27 C          -0.2418   -2.2158   -1.2110 C.ar    1  LIG11       0.2641
     28 C           1.5143   -1.0494   -0.3173 C.ar    1  LIG11       0.1659
     29 C           2.7866   -0.3250   -0.4927 C.ar    1  LIG11       0.0227
     30 C          -3.2764   -2.0431   -0.9320 C.ar    1  LIG11       0.1702
     31 C           3.2809   -0.0074   -1.7677 C.ar    1  LIG11      -0.0252
     32 C           3.5109    0.1501    0.6112 C.ar    1  LIG11      -0.0328
     33 C          -0.6263   -4.3463   -1.9886 C.3     1  LIG11       0.1143
     34 C          -3.2421   -0.9885   -1.8645 C.ar    1  LIG11       0.1621
     35 C           4.4317    0.7704   -1.8925 C.ar    1  LIG11       0.0708
     36 C          -4.3803   -2.9063   -0.8980 C.ar    1  LIG11      -0.0157
     37 C           4.6557    0.8987    0.4050 C.ar    1  LIG11       0.0289
     38 C          -1.1718   -5.1382   -3.1773 C.3     1  LIG11       0.0783
     39 C          -4.3112   -0.8401   -2.7582 C.ar    1  LIG11      -0.0163
     40 C          -5.4355   -2.7483   -1.7928 C.ar    1  LIG11      -0.0581
     41 C          -5.3985   -1.7174   -2.7246 C.ar    1  LIG11      -0.0581
     42 C           4.9134    1.1821   -3.2141 C.ar    1  LIG11       0.0207
     43 C          -1.9522    0.7032   -2.9546 C.3     1  LIG11       0.0790
@<TRIPOS>BOND
     1     1    21    1
     2     1     8    1
     3     1     4    2
     4     1     3    2
     5     2    26    1
     6     2    30    1
     7     5    27    1
     8     5    33    1
     9     6    34    1
    10     6    43    1
    11     7    38    1
    12     8    25    1
    13     9    23   ar
    14     9    21   ar
    15    10    25   ar
    16    10    28   ar
    17    11    27   ar
    18    11    28   ar
    19    12    37   ar
    20    12    35   ar
    21    13    15   ar
    22    13    42   ar
    23    14    42   ar
    24    14    16   ar
    25    15    16   ar
    26    17    18    1
    27    17    20    1
    28    17    19    1
    29    18    23   ar
    30    18    22   ar
    31    21    24   ar
    32    22    24   ar
    33    25    26   ar
    34    26    27   ar
    35    28    29    1
    36    29    31   ar
    37    29    32   ar
    38    30    36   ar
    39    30    34   ar
    40    31    35   ar
    41    32    37   ar
    42    33    38    1
    43    34    39   ar
    44    35    42    1
    45    36    40   ar
    46    39    41   ar
    47    40    41   ar
