@<TRIPOS>MOLECULE
BOSENTAN_50CONFORMERS.pdb
 39 42 0 0 0
SMALL
GASTEIGER

@<TRIPOS>ATOM
      1  S1        -2.3120   -1.6410    2.7370 S.O2    1  LGD1        0.0943
      2  O2        -1.5620   -2.9080    2.6480 O.2     1  LGD1       -0.1483
      3  O3        -2.0480   -0.8660    3.9410 O.2     1  LGD1       -0.1483
      4  O4        -2.3080   -2.9470   -0.1270 O.3     1  LGD1       -0.4427
      5  O5        -0.4840   -3.8300   -2.0350 O.3     1  LGD1       -0.4552
      6  O6        -4.3250   -4.9400   -0.1280 O.3     1  LGD1       -0.4684
      7  O7        -2.1120   -5.6410   -3.6980 O.3     1  LGD1       -0.2162
      8  N8        -1.7460   -0.6930    1.5320 N.pl3   1  LGD1       -0.0737
      9  N9         0.3320   -0.5290    0.3740 N.ar    1  LGD1       -0.2027
     10  N10        0.9930   -2.1350   -1.3510 N.ar    1  LGD1       -0.1866
     11  N11        2.7030    0.9770   -0.1940 N.ar    1  LGD1       -0.2224
     12  N12        3.6730   -1.0500   -1.0970 N.ar    1  LGD1       -0.2224
     13  C13       -8.3210   -1.4920    1.9850 C.3     1  LGD1        0.0189
     14  C14       -6.7870   -1.4720    2.0040 C.ar    1  LGD1       -0.0227
     15  C15       -8.9170   -2.6520    2.8130 C.3     1  LGD1        0.0044
     16  C16       -8.8250   -1.7270    0.5110 C.3     1  LGD1        0.0044
     17  C17       -8.9520   -0.1210    2.4900 C.3     1  LGD1        0.0044
     18  C18       -6.0720   -0.2770    2.1190 C.ar    1  LGD1       -0.0029
     19  C19       -6.0790   -2.7020    2.0660 C.ar    1  LGD1       -0.0029
     20  C20       -4.0760   -1.5540    2.4260 C.ar    1  LGD1        0.1271
     21  C21       -4.7120   -0.2910    2.3860 C.ar    1  LGD1        0.0199
     22  C22       -4.7160   -2.7480    2.2750 C.ar    1  LGD1        0.0199
     23  C23       -0.8670   -1.1610    0.4830 C.ar    1  LGD1        0.2125
     24  C24       -1.1980   -2.1910   -0.3690 C.ar    1  LGD1        0.2327
     25  C25       -0.2770   -2.6830   -1.3030 C.ar    1  LGD1        0.2651
     26  C26        1.2290   -1.0550   -0.5230 C.ar    1  LGD1        0.2028
     27  C27       -3.6030   -2.7210   -0.7440 C.ar    1  LGD1        0.1793
     28  C28        2.6120   -0.3340   -0.6040 C.ar    1  LGD1        0.1990
     29  C29       -0.8330   -3.6410   -3.4550 C.3     1  LGD1        0.2426
     30  C30       -4.5790   -3.7080   -0.7380 C.ar    1  LGD1        0.1730
     31  C31       -3.8780   -1.5100   -1.3650 C.ar    1  LGD1        0.0406
     32  C32       -5.8770   -3.4180   -1.2680 C.ar    1  LGD1        0.0401
     33  C33       -1.0170   -4.9460   -4.2160 C.3     1  LGD1        0.2292
     34  C34       -5.1320   -1.2460   -1.8500 C.ar    1  LGD1        0.0033
     35  C35       -6.1880   -2.1660   -1.7110 C.ar    1  LGD1        0.0033
     36  C36        3.8760    1.6480   -0.2450 C.ar    1  LGD1        0.1023
     37  C37        4.8630   -0.3620   -1.2110 C.ar    1  LGD1        0.1023
     38  C38        4.9200    0.9440   -0.7790 C.ar    1  LGD1        0.0414
     39  C39       -4.3840   -6.1090   -0.9810 C.3     1  LGD1        0.2526
@<TRIPOS>BOND
     1    33     7    1
     2    33    29    1
     3     5    29    1
     4     5    25    1
     5    10    25   ar
     6    10    26   ar
     7    36    11   ar
     8    36    38   ar
     9    11    28   ar
    10    25    24   ar
    11    38    37   ar
    12    34    31   ar
    13    34    35   ar
    14    28    26    1
    15    28    12   ar
    16    26     9   ar
    17    31    27   ar
    18    37    12   ar
    19    24     4    1
    20    24    23   ar
    21     4    27    1
    22    27    30   ar
    23    35    32   ar
    24    15    13    1
    25     9    23   ar
    26    23     8    1
    27    30    32   ar
    28    30     6    1
    29     6    39    1
    30     8     1    1
    31    18    14   ar
    32    18    21   ar
    33    13    14    1
    34    13    17    1
    35    13    16    1
    36    14    19   ar
    37    21    20   ar
    38    20     1    1
    39    20    22   ar
    40    19    22   ar
    41     1     2    2
    42     1     3    2
@<TRIPOS>MOLECULE
16004692
 32 34 0 0 0
SMALL
GASTEIGER

@<TRIPOS>ATOM
      1 BR         -5.1779   -0.6985    4.9909 Br      1  LIG11      -0.0503
      2 BR          1.8044    2.8029   -3.8027 Br      1  LIG11      -0.0472
      3 S          -8.8098   -3.6916   -1.1313 S.O2    1  LIG11       0.1104
      4 O          -4.1239   -0.1384   -1.7543 O.3     1  LIG11      -0.4724
      5 O          -9.4516   -4.5667   -0.1819 O.2     1  LIG11      -0.1381
      6 O          -9.0516   -3.8728   -2.5436 O.2     1  LIG11      -0.1381
      7 O          -3.4682    2.5342   -1.1455 O.3     1  LIG11      -0.4590
      8 N          -9.3046   -2.1349   -0.8056 N.3     1  LIG11      -0.1771
      9 N          -7.1672   -3.7812   -0.8075 N.pl3   1  LIG11      -0.1889
     10 N          -6.2454   -3.3995   -2.8856 N.ar    1  LIG11      -0.2186
     11 N          -4.7019   -1.6539   -3.3023 N.ar    1  LIG11      -0.2008
     12 N          -1.9531    1.6443   -2.6317 N.ar    1  LIG11      -0.2022
     13 N          -1.5771    3.7749   -1.6269 N.ar    1  LIG11      -0.2022
     14 C          -8.7556   -1.3114    0.2622 C.3     1  LIG11       0.0185
     15 C          -5.4091   -2.0671   -1.0305 C.ar    1  LIG11       0.0848
     16 C          -6.2514   -3.0277   -1.6012 C.ar    1  LIG11       0.1532
     17 C          -9.0758   -1.6202    1.7088 C.3     1  LIG11      -0.0416
     18 C          -5.3614   -1.7778    0.4176 C.ar    1  LIG11      -0.0094
     19 C          -4.6819   -1.3615   -1.9830 C.ar    1  LIG11       0.2276
     20 C          -8.5709   -2.9417    2.2730 C.3     1  LIG11      -0.0641
     21 C          -4.9549   -2.7361    1.3593 C.ar    1  LIG11      -0.0527
     22 C          -5.7028   -0.4981    0.8916 C.ar    1  LIG11      -0.0527
     23 C          -3.1623    0.0567   -0.7189 C.3     1  LIG11       0.1252
     24 C          -4.9036   -2.4143    2.7231 C.ar    1  LIG11      -0.0472
     25 C          -5.6350   -0.1672    2.2427 C.ar    1  LIG11      -0.0472
     26 C          -5.4671   -2.6756   -3.6877 C.ar    1  LIG11       0.1219
     27 C          -3.3497    1.4938   -0.1694 C.3     1  LIG11       0.1267
     28 C          -5.2385   -1.1318    3.1588 C.ar    1  LIG11       0.0179
     29 C          -2.3076    2.6650   -1.8390 C.ar    1  LIG11       0.3180
     30 C          -0.7400    1.6943   -3.1942 C.ar    1  LIG11       0.0483
     31 C          -0.3883    3.7971   -2.2564 C.ar    1  LIG11       0.0483
     32 C           0.1013    2.7649   -3.0357 C.ar    1  LIG11       0.0543
@<TRIPOS>BOND
     1     1    28    1
     2     2    32    1
     3     3     5    2
     4     3     6    2
     5     3     8    1
     6     3     9    1
     7     4    19    1
     8     4    23    1
     9     7    27    1
    10     7    29    1
    11     8    14    1
    12     9    16    1
    13    10    16   ar
    14    10    26   ar
    15    11    19   ar
    16    11    26   ar
    17    12    29   ar
    18    12    30   ar
    19    13    29   ar
    20    13    31   ar
    21    14    17    1
    22    15    16   ar
    23    15    18    1
    24    15    19   ar
    25    17    20    1
    26    18    21   ar
    27    18    22   ar
    28    21    24   ar
    29    22    25   ar
    30    23    27    1
    31    24    28   ar
    32    25    28   ar
    33    30    32   ar
    34    31    32   ar
