@<TRIPOS>MOLECULE
BOSENTAN_50CONFORMERS.pdb
 39 42 0 0 0
SMALL
GASTEIGER

@<TRIPOS>ATOM
      1  S1        -1.5520    0.6760    2.4160 S.O2    1  LGD1        0.0943
      2  O2        -0.8780    1.7120    1.5880 O.2     1  LGD1       -0.1483
      3  O3        -2.8320    0.9730    3.1390 O.2     1  LGD1       -0.1483
      4  O4        -2.3060   -3.0100    0.0190 O.3     1  LGD1       -0.4427
      5  O5        -0.5220   -3.7750   -2.1340 O.3     1  LGD1       -0.4552
      6  O6        -0.8810   -3.9650    2.2900 O.3     1  LGD1       -0.4684
      7  O7         1.1800   -5.6650   -2.8480 O.3     1  LGD1       -0.2162
      8  N8        -1.8510   -0.6140    1.4210 N.pl3   1  LGD1       -0.0737
      9  N9         0.3760   -0.5420    0.4130 N.ar    1  LGD1       -0.2027
     10  N10        0.9530   -2.1110   -1.4270 N.ar    1  LGD1       -0.1866
     11  N11        3.5960   -1.1520   -0.3830 N.ar    1  LGD1       -0.2224
     12  N12        2.6310    1.0280   -0.8920 N.ar    1  LGD1       -0.2224
     13  C13        2.4660   -1.2960    6.6590 C.3     1  LGD1        0.0189
     14  C14        1.5130   -0.9210    5.5510 C.ar    1  LGD1       -0.0227
     15  C15        1.8460   -0.8510    8.0030 C.3     1  LGD1        0.0044
     16  C16        3.8730   -0.6050    6.6830 C.3     1  LGD1        0.0044
     17  C17        2.6480   -2.8410    6.7990 C.3     1  LGD1        0.0044
     18  C18        0.2630   -1.6020    5.3580 C.ar    1  LGD1       -0.0029
     19  C19        1.7890    0.1150    4.6810 C.ar    1  LGD1       -0.0029
     20  C20       -0.3660    0.0080    3.5740 C.ar    1  LGD1        0.1271
     21  C21       -0.6830   -1.1390    4.4390 C.ar    1  LGD1        0.0199
     22  C22        0.9380    0.5170    3.6570 C.ar    1  LGD1        0.0199
     23  C23       -0.8180   -1.1560    0.5690 C.ar    1  LGD1        0.2125
     24  C24       -1.1340   -2.2690   -0.2590 C.ar    1  LGD1        0.2327
     25  C25       -0.2180   -2.7570   -1.2310 C.ar    1  LGD1        0.2651
     26  C26        1.1960   -1.0530   -0.5450 C.ar    1  LGD1        0.2028
     27  C27       -2.2520   -4.3710    0.3430 C.ar    1  LGD1        0.1793
     28  C28        2.5780   -0.3050   -0.5880 C.ar    1  LGD1        0.1990
     29  C29       -0.0840   -3.7540   -3.5380 C.3     1  LGD1        0.2426
     30  C30       -1.6070   -4.8650    1.5220 C.ar    1  LGD1        0.1730
     31  C31       -2.9680   -5.2660   -0.4740 C.ar    1  LGD1        0.0406
     32  C32       -1.6040   -6.2120    1.7940 C.ar    1  LGD1        0.0401
     33  C33        1.2520   -4.4080   -3.5690 C.3     1  LGD1        0.2292
     34  C34       -3.0030   -6.6730   -0.1350 C.ar    1  LGD1        0.0033
     35  C35       -2.3540   -7.1200    1.0320 C.ar    1  LGD1        0.0033
     36  C36        4.8440   -0.6670   -0.4540 C.ar    1  LGD1        0.1023
     37  C37        3.8960    1.5420   -0.9320 C.ar    1  LGD1        0.1023
     38  C38        5.0200    0.7000   -0.7030 C.ar    1  LGD1        0.0414
     39  C39        0.5660   -4.1080    2.0900 C.3     1  LGD1        0.2526
@<TRIPOS>BOND
     1    33     7    1
     2    33    29    1
     3     5    29    1
     4     5    25    1
     5    10    25   ar
     6    10    26   ar
     7    36    11   ar
     8    36    38   ar
     9    11    28   ar
    10    25    24   ar
    11    38    37   ar
    12    34    31   ar
    13    34    35   ar
    14    28    26    1
    15    28    12   ar
    16    26     9   ar
    17    31    27   ar
    18    37    12   ar
    19    24     4    1
    20    24    23   ar
    21     4    27    1
    22    27    30   ar
    23    35    32   ar
    24    15    13    1
    25     9    23   ar
    26    23     8    1
    27    30    32   ar
    28    30     6    1
    29     6    39    1
    30     8     1    1
    31    18    14   ar
    32    18    21   ar
    33    13    14    1
    34    13    17    1
    35    13    16    1
    36    14    19   ar
    37    21    20   ar
    38    20     1    1
    39    20    22   ar
    40    19    22   ar
    41     1     2    2
    42     1     3    2
@<TRIPOS>MOLECULE
9871593
 37 40 0 0 0
SMALL
GASTEIGER

@<TRIPOS>ATOM
      1 O          -3.6488   -5.4630   -1.8957 O.3     1  LIG11      -0.4526
      2 O          -2.7443   -7.6793   -1.5823 O.3     1  LIG11      -0.4526
      3 O          -2.6237    0.1342   -0.7134 O.3     1  LIG11      -0.4913
      4 O           0.8438   -2.3496   -3.0641 O.3     1  LIG11      -0.4913
      5 O          -1.1584   -0.3149   -3.1088 O.3     1  LIG11      -0.4885
      6 O          -0.8203   -3.6365    5.0927 O.2     1  LIG11      -0.2870
      7 O          -3.9060   -5.0764    4.0101 O.co2   1  LIG11      -0.5446
      8 O          -3.7315   -2.7909    3.9494 O.co2   1  LIG11      -0.5446
      9 O           2.3342    1.7981    5.1445 O.3     1  LIG11      -0.4951
     10 C          -0.0271   -3.2432    1.7018 C.3     1  LIG11       0.0021
     11 C          -1.1041   -3.3205    2.7568 C.2     1  LIG11       0.0135
     12 C          -0.3768   -2.4938    0.4192 C.ar    1  LIG11      -0.0358
     13 C          -2.2347   -4.0572    2.6361 C.2     1  LIG11       0.0117
     14 C          -2.4398   -5.0218    1.5443 C.ar    1  LIG11      -0.0121
     15 C          -0.7519   -2.8485    4.1463 C.2     1  LIG11       0.1901
     16 C           0.3813   -2.7338   -0.7340 C.ar    1  LIG11      -0.0126
     17 C          -1.4031   -1.5429    0.3327 C.ar    1  LIG11      -0.0126
     18 C          -3.0602   -4.6738    0.3391 C.ar    1  LIG11      -0.0084
     19 C          -3.1147   -5.6314   -0.6540 C.ar    1  LIG11       0.1668
     20 C          -1.9255   -6.3302    1.7180 C.ar    1  LIG11      -0.0503
     21 C          -2.5979   -6.8965   -0.4789 C.ar    1  LIG11       0.1663
     22 C          -1.6513   -0.8265   -0.8473 C.ar    1  LIG11       0.1654
     23 C           0.1123   -2.0605   -1.9371 C.ar    1  LIG11       0.1654
     24 C          -0.0523   -1.5510    4.3802 C.ar    1  LIG11       0.0222
     25 C          -0.8698   -1.0548   -1.9900 C.ar    1  LIG11       0.2035
     26 C          -2.0039   -7.2827    0.7006 C.ar    1  LIG11      -0.0156
     27 C          -3.3882   -3.9786    3.6608 C.2     1  LIG11       0.0726
     28 C          -3.4371   -6.7709   -2.4604 C.3     1  LIG11       0.2332
     29 C          -0.1246   -0.4569    3.5182 C.ar    1  LIG11      -0.0475
     30 C           0.7516   -1.4446    5.5263 C.ar    1  LIG11      -0.0475
     31 C           0.6627    0.6827    3.7386 C.ar    1  LIG11      -0.0193
     32 C           1.5188   -0.3007    5.7605 C.ar    1  LIG11      -0.0193
     33 C           1.5095    0.7486    4.8449 C.ar    1  LIG11       0.1201
     34 C          -3.5209    0.2581   -1.8095 C.3     1  LIG11       0.0790
     35 C           0.8573   -3.7433   -3.3703 C.3     1  LIG11       0.0790
     36 C          -0.0421    0.1231   -3.8729 C.3     1  LIG11       0.0791
     37 C           2.8311    2.5119    4.0176 C.3     1  LIG11       0.0788
@<TRIPOS>BOND
     1     1    19    1
     2     1    28    1
     3     2    28    1
     4     2    21    1
     5     3    22    1
     6     3    34    1
     7     4    23    1
     8     4    35    1
     9     5    25    1
    10     5    36    1
    11     6    15    2
    12     7    27   ar
    13     8    27   ar
    14     9    33    1
    15     9    37    1
    16    10    11    1
    17    10    12    1
    18    11    13    2
    19    11    15    1
    20    12    16   ar
    21    12    17   ar
    22    13    14    1
    23    13    27    1
    24    14    20   ar
    25    14    18   ar
    26    15    24    1
    27    16    23   ar
    28    17    22   ar
    29    18    19   ar
    30    19    21   ar
    31    20    26   ar
    32    21    26   ar
    33    22    25   ar
    34    23    25   ar
    35    24    29   ar
    36    24    30   ar
    37    29    31   ar
    38    30    32   ar
    39    31    33   ar
    40    32    33   ar
