@<TRIPOS>MOLECULE
BOSENTAN_50CONFORMERS.pdb
 39 42 0 0 0
SMALL
GASTEIGER

@<TRIPOS>ATOM
      1  S1        -1.5520    0.6760    2.4160 S.O2    1  LGD1        0.0943
      2  O2        -0.8780    1.7120    1.5880 O.2     1  LGD1       -0.1483
      3  O3        -2.8320    0.9730    3.1390 O.2     1  LGD1       -0.1483
      4  O4        -2.3060   -3.0100    0.0190 O.3     1  LGD1       -0.4427
      5  O5        -0.5220   -3.7750   -2.1340 O.3     1  LGD1       -0.4552
      6  O6        -0.8810   -3.9650    2.2900 O.3     1  LGD1       -0.4684
      7  O7         1.1800   -5.6650   -2.8480 O.3     1  LGD1       -0.2162
      8  N8        -1.8510   -0.6140    1.4210 N.pl3   1  LGD1       -0.0737
      9  N9         0.3760   -0.5420    0.4130 N.ar    1  LGD1       -0.2027
     10  N10        0.9530   -2.1110   -1.4270 N.ar    1  LGD1       -0.1866
     11  N11        3.5960   -1.1520   -0.3830 N.ar    1  LGD1       -0.2224
     12  N12        2.6310    1.0280   -0.8920 N.ar    1  LGD1       -0.2224
     13  C13        2.4660   -1.2960    6.6590 C.3     1  LGD1        0.0189
     14  C14        1.5130   -0.9210    5.5510 C.ar    1  LGD1       -0.0227
     15  C15        1.8460   -0.8510    8.0030 C.3     1  LGD1        0.0044
     16  C16        3.8730   -0.6050    6.6830 C.3     1  LGD1        0.0044
     17  C17        2.6480   -2.8410    6.7990 C.3     1  LGD1        0.0044
     18  C18        0.2630   -1.6020    5.3580 C.ar    1  LGD1       -0.0029
     19  C19        1.7890    0.1150    4.6810 C.ar    1  LGD1       -0.0029
     20  C20       -0.3660    0.0080    3.5740 C.ar    1  LGD1        0.1271
     21  C21       -0.6830   -1.1390    4.4390 C.ar    1  LGD1        0.0199
     22  C22        0.9380    0.5170    3.6570 C.ar    1  LGD1        0.0199
     23  C23       -0.8180   -1.1560    0.5690 C.ar    1  LGD1        0.2125
     24  C24       -1.1340   -2.2690   -0.2590 C.ar    1  LGD1        0.2327
     25  C25       -0.2180   -2.7570   -1.2310 C.ar    1  LGD1        0.2651
     26  C26        1.1960   -1.0530   -0.5450 C.ar    1  LGD1        0.2028
     27  C27       -2.2520   -4.3710    0.3430 C.ar    1  LGD1        0.1793
     28  C28        2.5780   -0.3050   -0.5880 C.ar    1  LGD1        0.1990
     29  C29       -0.0840   -3.7540   -3.5380 C.3     1  LGD1        0.2426
     30  C30       -1.6070   -4.8650    1.5220 C.ar    1  LGD1        0.1730
     31  C31       -2.9680   -5.2660   -0.4740 C.ar    1  LGD1        0.0406
     32  C32       -1.6040   -6.2120    1.7940 C.ar    1  LGD1        0.0401
     33  C33        1.2520   -4.4080   -3.5690 C.3     1  LGD1        0.2292
     34  C34       -3.0030   -6.6730   -0.1350 C.ar    1  LGD1        0.0033
     35  C35       -2.3540   -7.1200    1.0320 C.ar    1  LGD1        0.0033
     36  C36        4.8440   -0.6670   -0.4540 C.ar    1  LGD1        0.1023
     37  C37        3.8960    1.5420   -0.9320 C.ar    1  LGD1        0.1023
     38  C38        5.0200    0.7000   -0.7030 C.ar    1  LGD1        0.0414
     39  C39        0.5660   -4.1080    2.0900 C.3     1  LGD1        0.2526
@<TRIPOS>BOND
     1    33     7    1
     2    33    29    1
     3     5    29    1
     4     5    25    1
     5    10    25   ar
     6    10    26   ar
     7    36    11   ar
     8    36    38   ar
     9    11    28   ar
    10    25    24   ar
    11    38    37   ar
    12    34    31   ar
    13    34    35   ar
    14    28    26    1
    15    28    12   ar
    16    26     9   ar
    17    31    27   ar
    18    37    12   ar
    19    24     4    1
    20    24    23   ar
    21     4    27    1
    22    27    30   ar
    23    35    32   ar
    24    15    13    1
    25     9    23   ar
    26    23     8    1
    27    30    32   ar
    28    30     6    1
    29     6    39    1
    30     8     1    1
    31    18    14   ar
    32    18    21   ar
    33    13    14    1
    34    13    17    1
    35    13    16    1
    36    14    19   ar
    37    21    20   ar
    38    20     1    1
    39    20    22   ar
    40    19    22   ar
    41     1     2    2
    42     1     3    2
@<TRIPOS>MOLECULE
108002
 38 42 0 0 0
SMALL
GASTEIGER

@<TRIPOS>ATOM
      1 O           2.3937   -5.0623    2.1996 O.co2   1  LIG11      -0.5495
      2 O           1.4723   -4.8036    4.2570 O.co2   1  LIG11      -0.5495
      3 O          -0.6184   -1.5312   -3.1445 O.3     1  LIG11      -0.4920
      4 O          -2.7827   -3.2340    1.5557 O.3     1  LIG11      -0.4858
      5 O          -1.5775    1.1961    4.4865 O.3     1  LIG11      -0.4526
      6 O          -0.0366    1.2945    6.3393 O.3     1  LIG11      -0.4526
      7 O          -4.6339   -7.7153    1.1468 O.3     1  LIG11      -0.4950
      8 O          -5.9135   -3.0938    2.3199 O.co2   1  LIG11      -0.5463
      9 O          -4.9696   -1.0267    2.1426 O.co2   1  LIG11      -0.5463
     10 C           0.4083   -3.7539    2.4207 C.3     1  LIG11       0.0203
     11 C          -0.0649   -4.2824    1.0498 C.3     1  LIG11       0.0218
     12 C           1.0670   -2.3724    2.1816 C.3     1  LIG11       0.0184
     13 C          -0.0823   -3.0469    0.1827 C.ar    1  LIG11      -0.0320
     14 C           0.5704   -1.9840    0.8061 C.ar    1  LIG11      -0.0353
     15 C           0.7698   -1.3787    3.2983 C.ar    1  LIG11      -0.0356
     16 C          -1.3466   -5.1027    1.0973 C.ar    1  LIG11       0.0026
     17 C           1.5175   -4.6303    3.0050 C.2     1  LIG11       0.0466
     18 C          -0.5359   -2.9432   -1.1290 C.ar    1  LIG11      -0.0159
     19 C           0.7689   -0.7878    0.1305 C.ar    1  LIG11      -0.0542
     20 C          -0.3117   -1.7578   -1.8296 C.ar    1  LIG11       0.1208
     21 C          -2.6256   -4.5842    1.3643 C.ar    1  LIG11       0.1283
     22 C          -0.3686   -0.5535    3.2942 C.ar    1  LIG11      -0.0124
     23 C           1.6575   -1.3176    4.4014 C.ar    1  LIG11      -0.0543
     24 C           0.3116   -0.6767   -1.1850 C.ar    1  LIG11      -0.0196
     25 C          -1.2280   -6.4913    0.8814 C.ar    1  LIG11      -0.0510
     26 C          -0.5494    0.3160    4.3496 C.ar    1  LIG11       0.1665
     27 C           1.4446   -0.4318    5.4623 C.ar    1  LIG11      -0.0159
     28 C          -3.7449   -5.4317    1.3502 C.ar    1  LIG11       0.0221
     29 C          -2.3447   -7.3293    0.9006 C.ar    1  LIG11      -0.0194
     30 C           0.3325    0.3763    5.4034 C.ar    1  LIG11       0.1662
     31 C          -3.6091   -6.8043    1.1446 C.ar    1  LIG11       0.1236
     32 C          -0.7846   -2.6561   -4.0058 C.3     1  LIG11       0.0893
     33 C          -1.2853    1.7516    5.7777 C.3     1  LIG11       0.2332
     34 C          -3.5694   -2.8818    2.7200 C.3     1  LIG11       0.1287
     35 C           0.5365   -3.0810   -4.6530 C.3     1  LIG11      -0.0215
     36 C          -4.9377   -2.2796    2.3296 C.2     1  LIG11       0.0789
     37 C          -5.8471   -7.2605    1.7416 C.3     1  LIG11       0.0788
     38 C           1.4947   -3.7927   -3.7089 C.3     1  LIG11      -0.0622
@<TRIPOS>BOND
     1     1    17   ar
     2     2    17   ar
     3     3    20    1
     4     3    32    1
     5     4    21    1
     6     4    34    1
     7     5    26    1
     8     5    33    1
     9     6    30    1
    10     6    33    1
    11     7    31    1
    12     7    37    1
    13     8    36   ar
    14     9    36   ar
    15    10    11    1
    16    10    12    1
    17    10    17    1
    18    11    13    1
    19    11    16    1
    20    12    14    1
    21    12    15    1
    22    13    14   ar
    23    13    18   ar
    24    14    19   ar
    25    15    22   ar
    26    15    23   ar
    27    16    21   ar
    28    16    25   ar
    29    18    20   ar
    30    19    24   ar
    31    20    24   ar
    32    21    28   ar
    33    22    26   ar
    34    23    27   ar
    35    25    29   ar
    36    26    30   ar
    37    27    30   ar
    38    28    31   ar
    39    29    31   ar
    40    32    35    1
    41    34    36    1
    42    35    38    1
