@<TRIPOS>MOLECULE
BOSENTAN_50CONFORMERS.pdb
 39 42 0 0 0
SMALL
GASTEIGER

@<TRIPOS>ATOM
      1  S1        -2.1950    0.9790    1.5750 S.O2    1  LGD1        0.0943
      2  O2        -3.6260    1.0770    2.1120 O.2     1  LGD1       -0.1483
      3  O3        -1.0440    1.4720    2.4140 O.2     1  LGD1       -0.1483
      4  O4        -2.4680   -2.8310   -0.1920 O.3     1  LGD1       -0.4427
      5  O5        -0.5400   -3.7360   -2.0620 O.3     1  LGD1       -0.4552
      6  O6        -2.4940   -1.8770   -2.7760 O.3     1  LGD1       -0.4684
      7  O7        -0.2590   -6.0400   -3.9240 O.3     1  LGD1       -0.2162
      8  N8        -1.8420   -0.6480    1.3810 N.pl3   1  LGD1       -0.0737
      9  N9         0.3650   -0.6070    0.3680 N.ar    1  LGD1       -0.2027
     10  N10        0.9560   -2.0500   -1.4450 N.ar    1  LGD1       -0.1866
     11  N11        2.7520    0.8600   -0.4260 N.ar    1  LGD1       -0.2224
     12  N12        3.6740   -1.3280   -0.1880 N.ar    1  LGD1       -0.2224
     13  C13       -1.9750    3.4320   -4.0580 C.3     1  LGD1        0.0189
     14  C14       -1.9630    2.8920   -2.5980 C.ar    1  LGD1       -0.0227
     15  C15       -2.0200    2.3060   -5.1320 C.3     1  LGD1        0.0044
     16  C16       -0.7970    4.3670   -4.3750 C.3     1  LGD1        0.0044
     17  C17       -3.2070    4.2640   -4.4060 C.3     1  LGD1        0.0044
     18  C18       -0.8440    2.8270   -1.8020 C.ar    1  LGD1       -0.0029
     19  C19       -3.1540    2.2710   -2.1610 C.ar    1  LGD1       -0.0029
     20  C20       -2.0710    1.6450   -0.0830 C.ar    1  LGD1        0.1271
     21  C21       -0.8580    2.1870   -0.5190 C.ar    1  LGD1        0.0199
     22  C22       -3.2010    1.6160   -0.9140 C.ar    1  LGD1        0.0199
     23  C23       -0.8390   -1.1560    0.5500 C.ar    1  LGD1        0.2125
     24  C24       -1.1450   -2.2830   -0.2440 C.ar    1  LGD1        0.2327
     25  C25       -0.2140   -2.7180   -1.2060 C.ar    1  LGD1        0.2651
     26  C26        1.2420   -1.0800   -0.5330 C.ar    1  LGD1        0.2028
     27  C27       -3.5380   -2.2090   -0.7300 C.ar    1  LGD1        0.1793
     28  C28        2.6550   -0.4480   -0.3540 C.ar    1  LGD1        0.1990
     29  C29       -0.0540   -4.9970   -1.7680 C.3     1  LGD1        0.2426
     30  C30       -3.6140   -1.7550   -2.0830 C.ar    1  LGD1        0.1730
     31  C31       -4.6390   -2.0100    0.0970 C.ar    1  LGD1        0.0406
     32  C32       -4.7730   -1.1500   -2.5920 C.ar    1  LGD1        0.0401
     33  C33       -0.8710   -6.0160   -2.6140 C.3     1  LGD1        0.2292
     34  C34       -5.7550   -1.2910   -0.3560 C.ar    1  LGD1        0.0033
     35  C35       -5.8300   -0.9060   -1.6770 C.ar    1  LGD1        0.0033
     36  C36        3.9880    1.4070   -0.2740 C.ar    1  LGD1        0.1023
     37  C37        4.9070   -0.8150   -0.0320 C.ar    1  LGD1        0.1023
     38  C38        5.0790    0.5430   -0.0640 C.ar    1  LGD1        0.0414
     39  C39       -2.4100   -1.1280   -3.9700 C.3     1  LGD1        0.2526
@<TRIPOS>BOND
     1    33     7    1
     2    33    29    1
     3     5    29    1
     4     5    25    1
     5    10    25   ar
     6    10    26   ar
     7    36    11   ar
     8    36    38   ar
     9    11    28   ar
    10    25    24   ar
    11    38    37   ar
    12    34    31   ar
    13    34    35   ar
    14    28    26    1
    15    28    12   ar
    16    26     9   ar
    17    31    27   ar
    18    37    12   ar
    19    24     4    1
    20    24    23   ar
    21     4    27    1
    22    27    30   ar
    23    35    32   ar
    24    15    13    1
    25     9    23   ar
    26    23     8    1
    27    30    32   ar
    28    30     6    1
    29     6    39    1
    30     8     1    1
    31    18    14   ar
    32    18    21   ar
    33    13    14    1
    34    13    17    1
    35    13    16    1
    36    14    19   ar
    37    21    20   ar
    38    20     1    1
    39    20    22   ar
    40    19    22   ar
    41     1     2    2
    42     1     3    2
@<TRIPOS>MOLECULE
23693553
 46 48 0 0 0
SMALL
GASTEIGER

@<TRIPOS>ATOM
      1 O          -1.8515   -2.3392   -9.0233 O.2     1  LIG11      -0.2526
      2 O          -4.9007   -0.3295   -7.9527 O.2     1  LIG11      -0.2731
      3 O          -5.0742    1.4972   -4.6166 O.2     1  LIG11      -0.2689
      4 O          -1.1266   -0.6692   -4.0186 O.co2   1  LIG11      -0.5479
      5 OXT        -2.6987   -1.6357   -5.3536 O.co2   1  LIG11      -0.5479
      6 O          -7.2662   -0.8057    1.6859 O.3     1  LIG11      -0.4515
      7 O          -9.1548   -0.3835    0.4233 O.2     1  LIG11      -0.2227
      8 N           0.3206   -1.9752   -8.2961 N.am    1  LIG11      -0.2801
      9 N          -1.3355   -0.2942   -8.2357 N.am    1  LIG11      -0.2879
     10 N          -3.7059    0.5776   -6.2290 N.am    1  LIG11      -0.2273
     11 N          -5.1055   -2.0195   -5.5120 N.3     1  LIG11       0.2276
     12 N          -7.1626   -0.8620   -0.6021 N.ar    1  LIG11      -0.2526
     13 C           1.3737   -1.0996   -7.7115 C.3     1  LIG11       0.0249
     14 C           0.6635   -3.3397   -8.7677 C.3     1  LIG11       0.0249
     15 C           2.8147   -1.6164   -7.8156 C.3     1  LIG11      -0.0344
     16 C           2.1590   -3.6666   -8.9256 C.3     1  LIG11      -0.0344
     17 C           3.0264   -2.4353   -9.0660 C.3     1  LIG11      -0.0497
     18 CA         -2.6457    0.2572   -8.5805 C.3     1  LIG11       0.1019
     19 C          -1.9036    2.1198  -10.3274 C.3     1  LIG11      -0.0356
     20 C          -2.5689    1.7516   -8.9675 C.3     1  LIG11      -0.0210
     21 C          -1.0074   -1.5896   -8.5326 C.2     1  LIG11       0.3033
     22 C           1.1196   -0.7679   -6.2421 C.3     1  LIG11      -0.0464
     23 C           0.0098   -4.4282   -7.9035 C.3     1  LIG11      -0.0464
     24 C          -3.8071    0.0773   -7.5341 C.2     1  LIG11       0.2429
     25 C          -2.5425    1.3598  -11.5012 C.3     1  LIG11      -0.0600
     26 C          -0.3897    1.8532  -10.3207 C.3     1  LIG11      -0.0600
     27 C          -2.1189    3.6315  -10.5558 C.3     1  LIG11      -0.0600
     28 CA         -2.3806    0.7139   -5.5631 C.3     1  LIG11       0.0730
     29 C          -2.2074    1.8738   -4.5643 C.3     1  LIG11      -0.0286
     30 C          -4.8021    0.5353   -5.3429 C.2     1  LIG11       0.2708
     31 CA         -5.7632   -0.6823   -5.3914 C.3     1  LIG11       0.0579
     32 C          -2.3782    3.2465   -5.2259 C.3     1  LIG11      -0.0513
     33 C          -6.8575   -0.6773   -4.3050 C.3     1  LIG11       0.0261
     34 C          -1.9912   -0.6594   -4.9276 C.2     1  LIG11       0.0626
     35 C          -6.6036   -0.8590   -2.8242 C.ar    1  LIG11      -0.0158
     36 C          -1.9658    4.4075   -4.3183 C.3     1  LIG11      -0.0558
     37 C          -5.4588   -1.2213   -2.0466 C.ar    1  LIG11       0.0038
     38 C          -7.6178   -0.6781   -1.8984 C.ar    1  LIG11       0.0202
     39 C          -5.8259   -1.2554   -0.6883 C.ar    1  LIG11       0.0598
     40 C          -0.4587    4.4971   -4.1158 C.3     1  LIG11      -0.0653
     41 C          -4.1217   -1.5324   -2.3473 C.ar    1  LIG11      -0.0523
     42 C          -4.8982   -1.6317    0.3127 C.ar    1  LIG11      -0.0371
     43 C          -3.1954   -1.8799   -1.3636 C.ar    1  LIG11      -0.0611
     44 C          -7.9717   -0.6633    0.5392 C.2     1  LIG11       0.4196
     45 C          -3.5857   -1.9402   -0.0424 C.ar    1  LIG11      -0.0598
     46 C          -7.9763   -0.5792    2.9040 C.3     1  LIG11       0.0835
@<TRIPOS>BOND
     1     1    21    2
     2     2    24    2
     3     3    30    2
     4     4    34   ar
     5     5    34   ar
     6     6    44    1
     7     6    46    1
     8     7    44    2
     9     8    13    1
    10     8    14    1
    11     9    21   am
    12    10    24   am
    13    10    30   am
    14    12    39   ar
    15    12    38   ar
    16    12    44   am
    17    13    15    1
    18    13    22    1
    19    14    16    1
    20    14    23    1
    21    15    17    1
    22    16    17    1
    23    18     9    1
    24    18    24    1
    25    18    20    1
    26    19    20    1
    27    19    27    1
    28    19    26    1
    29    19    25    1
    30    21     8   am
    31    28    34    1
    32    28    29    1
    33    28    10    1
    34    29    32    1
    35    31    33    1
    36    31    11    1
    37    31    30    1
    38    32    36    1
    39    33    35    1
    40    35    38   ar
    41    35    37   ar
    42    36    40    1
    43    37    39   ar
    44    37    41   ar
    45    39    42   ar
    46    41    43   ar
    47    42    45   ar
    48    43    45   ar
