@<TRIPOS>MOLECULE
BOSENTAN_50CONFORMERS.pdb
 39 42 0 0 0
SMALL
GASTEIGER

@<TRIPOS>ATOM
      1  S1        -1.4260    0.2990    2.6550 S.O2    1  LGD1        0.0943
      2  O2        -1.3660    1.6850    2.0670 O.2     1  LGD1       -0.1483
      3  O3        -2.5040    0.0830    3.6090 O.2     1  LGD1       -0.1483
      4  O4        -2.4800   -2.7380   -0.2590 O.3     1  LGD1       -0.4427
      5  O5        -0.5770   -3.7940   -2.0860 O.3     1  LGD1       -0.4552
      6  O6        -4.4040   -4.3140   -1.4350 O.3     1  LGD1       -0.4684
      7  O7        -0.6830   -3.4190   -5.2080 O.3     1  LGD1       -0.2162
      8  N8        -1.7390   -0.7410    1.4630 N.pl3   1  LGD1       -0.0737
      9  N9         0.3290   -0.4760    0.3600 N.ar    1  LGD1       -0.2027
     10  N10        1.0320   -2.1330   -1.3490 N.ar    1  LGD1       -0.1866
     11  N11        3.3330   -0.3710    0.5140 N.ar    1  LGD1       -0.2224
     12  N12        2.9120   -0.0740   -1.8800 N.ar    1  LGD1       -0.2224
     13  C13        4.0730   -0.6310    4.9900 C.3     1  LGD1        0.0189
     14  C14        2.6830   -0.3180    4.4560 C.ar    1  LGD1       -0.0227
     15  C15        4.3450    0.1670    6.3000 C.3     1  LGD1        0.0044
     16  C16        5.2120   -0.3690    4.0340 C.3     1  LGD1        0.0044
     17  C17        4.2790   -2.1100    5.3940 C.3     1  LGD1        0.0044
     18  C18        2.4730    0.6580    3.4640 C.ar    1  LGD1       -0.0029
     19  C19        1.5690   -1.0800    4.9960 C.ar    1  LGD1       -0.0029
     20  C20        0.2010    0.0220    3.3710 C.ar    1  LGD1        0.1271
     21  C21        1.2220    0.9110    2.9330 C.ar    1  LGD1        0.0199
     22  C22        0.2890   -0.9180    4.3910 C.ar    1  LGD1        0.0199
     23  C23       -0.8570   -1.1340    0.4950 C.ar    1  LGD1        0.2125
     24  C24       -1.1820   -2.2180   -0.3340 C.ar    1  LGD1        0.2327
     25  C25       -0.2190   -2.7190   -1.2290 C.ar    1  LGD1        0.2651
     26  C26        1.1960   -1.0610   -0.5120 C.ar    1  LGD1        0.2028
     27  C27       -2.6980   -4.0420    0.2520 C.ar    1  LGD1        0.1793
     28  C28        2.5860   -0.4180   -0.6440 C.ar    1  LGD1        0.1990
     29  C29        0.2990   -4.1530   -3.1820 C.3     1  LGD1        0.2426
     30  C30       -3.8060   -4.7870   -0.2170 C.ar    1  LGD1        0.1730
     31  C31       -1.9880   -4.4760    1.4260 C.ar    1  LGD1        0.0406
     32  C32       -4.1190   -6.0000    0.3710 C.ar    1  LGD1        0.0401
     33  C33        0.4040   -3.1370   -4.3570 C.3     1  LGD1        0.2292
     34  C34       -2.4310   -5.6940    1.9980 C.ar    1  LGD1        0.0033
     35  C35       -3.4770   -6.4420    1.4700 C.ar    1  LGD1        0.0033
     36  C36        4.5340    0.3080    0.4370 C.ar    1  LGD1        0.1023
     37  C37        4.1350    0.4620   -1.9690 C.ar    1  LGD1        0.1023
     38  C38        4.9330    0.6470   -0.8390 C.ar    1  LGD1        0.0414
     39  C39       -3.9480   -5.2130   -2.5330 C.3     1  LGD1        0.2526
@<TRIPOS>BOND
     1    33     7    1
     2    33    29    1
     3     5    29    1
     4     5    25    1
     5    10    25   ar
     6    10    26   ar
     7    36    11   ar
     8    36    38   ar
     9    11    28   ar
    10    25    24   ar
    11    38    37   ar
    12    34    31   ar
    13    34    35   ar
    14    28    26    1
    15    28    12   ar
    16    26     9   ar
    17    31    27   ar
    18    37    12   ar
    19    24     4    1
    20    24    23   ar
    21     4    27    1
    22    27    30   ar
    23    35    32   ar
    24    15    13    1
    25     9    23   ar
    26    23     8    1
    27    30    32   ar
    28    30     6    1
    29     6    39    1
    30     8     1    1
    31    18    14   ar
    32    18    21   ar
    33    13    14    1
    34    13    17    1
    35    13    16    1
    36    14    19   ar
    37    21    20   ar
    38    20     1    1
    39    20    22   ar
    40    19    22   ar
    41     1     2    2
    42     1     3    2
@<TRIPOS>MOLECULE
9871593
 37 40 0 0 0
SMALL
GASTEIGER

@<TRIPOS>ATOM
      1 O          -3.8369   -5.0766   -1.5981 O.3     1  LIG11      -0.4526
      2 O          -4.4785   -7.2896   -0.8804 O.3     1  LIG11      -0.4526
      3 O           1.8206   -2.2026   -2.6433 O.3     1  LIG11      -0.4913
      4 O          -1.8269    0.5083   -1.1760 O.3     1  LIG11      -0.4913
      5 O          -0.0491   -0.0160   -2.9964 O.3     1  LIG11      -0.4885
      6 O          -2.1855   -1.0832    3.9215 O.2     1  LIG11      -0.2870
      7 O          -2.5798   -3.9177    5.2609 O.co2   1  LIG11      -0.5446
      8 O          -4.4765   -3.5223    4.0285 O.co2   1  LIG11      -0.5446
      9 O           3.5520    1.2902    4.4124 O.3     1  LIG11      -0.4951
     10 C          -0.1946   -3.2183    1.7343 C.3     1  LIG11       0.0021
     11 C          -1.2588   -2.9638    2.7720 C.2     1  LIG11       0.0135
     12 C          -0.1541   -2.3406    0.4996 C.ar    1  LIG11      -0.0358
     13 C          -2.3656   -3.7356    2.9134 C.2     1  LIG11       0.0117
     14 C          -2.8537   -4.7421    1.9404 C.ar    1  LIG11      -0.0121
     15 C          -1.1733   -1.7142    3.6166 C.2     1  LIG11       0.1901
     16 C          -1.0213   -1.2691    0.2817 C.ar    1  LIG11      -0.0126
     17 C           0.7925   -2.6479   -0.4917 C.ar    1  LIG11      -0.0126
     18 C          -3.0546   -4.3690    0.5986 C.ar    1  LIG11      -0.0084
     19 C          -3.5857   -5.2914   -0.2777 C.ar    1  LIG11       0.1668
     20 C          -3.2303   -6.0422    2.3451 C.ar    1  LIG11      -0.0503
     21 C          -3.9463   -6.5507    0.1312 C.ar    1  LIG11       0.1663
     22 C           0.8739   -1.9222   -1.6901 C.ar    1  LIG11       0.1654
     23 C          -0.9699   -0.5372   -0.9091 C.ar    1  LIG11       0.1654
     24 C           0.1207   -1.0277    3.8659 C.ar    1  LIG11       0.0222
     25 C          -0.0104   -0.8463   -1.8997 C.ar    1  LIG11       0.2035
     26 C          -3.7855   -6.9569    1.4376 C.ar    1  LIG11      -0.0156
     27 C          -3.2342   -3.6647    4.2004 C.2     1  LIG11       0.0726
     28 C          -4.4421   -6.3318   -1.9588 C.3     1  LIG11       0.2332
     29 C           1.2953   -1.6759    4.2502 C.ar    1  LIG11      -0.0475
     30 C           0.1267    0.3684    3.7253 C.ar    1  LIG11      -0.0475
     31 C           2.4781   -0.9369    4.4330 C.ar    1  LIG11      -0.0193
     32 C           1.2968    1.0994    3.9204 C.ar    1  LIG11      -0.0193
     33 C           2.4822    0.4521    4.2622 C.ar    1  LIG11       0.1201
     34 C           2.3793   -3.5115   -2.6391 C.3     1  LIG11       0.0790
     35 C          -3.0816    0.4711   -0.4998 C.3     1  LIG11       0.0790
     36 C           0.5368   -0.4601   -4.2074 C.3     1  LIG11       0.0791
     37 C           4.8185    0.6895    4.6333 C.3     1  LIG11       0.0788
@<TRIPOS>BOND
     1     1    19    1
     2     1    28    1
     3     2    28    1
     4     2    21    1
     5     3    22    1
     6     3    34    1
     7     4    23    1
     8     4    35    1
     9     5    25    1
    10     5    36    1
    11     6    15    2
    12     7    27   ar
    13     8    27   ar
    14     9    33    1
    15     9    37    1
    16    10    11    1
    17    10    12    1
    18    11    13    2
    19    11    15    1
    20    12    16   ar
    21    12    17   ar
    22    13    14    1
    23    13    27    1
    24    14    20   ar
    25    14    18   ar
    26    15    24    1
    27    16    23   ar
    28    17    22   ar
    29    18    19   ar
    30    19    21   ar
    31    20    26   ar
    32    21    26   ar
    33    22    25   ar
    34    23    25   ar
    35    24    29   ar
    36    24    30   ar
    37    29    31   ar
    38    30    32   ar
    39    31    33   ar
    40    32    33   ar
