@<TRIPOS>MOLECULE
BOSENTAN_50CONFORMERS.pdb
 39 42 0 0 0
SMALL
GASTEIGER

@<TRIPOS>ATOM
      1  S1        -1.6070    0.0920    2.8580 S.O2    1  LGD1        0.0943
      2  O2        -0.3110    0.8560    2.8660 O.2     1  LGD1       -0.1483
      3  O3        -2.9700    0.7120    3.0790 O.2     1  LGD1       -0.1483
      4  O4        -2.3490   -2.8410   -0.1210 O.3     1  LGD1       -0.4427
      5  O5        -0.5570   -3.7730   -2.0350 O.3     1  LGD1       -0.4552
      6  O6        -0.5230   -4.5100    1.2170 O.3     1  LGD1       -0.4684
      7  O7        -1.6420   -2.1520   -4.1820 O.3     1  LGD1       -0.2162
      8  N8        -1.8160   -0.6830    1.3870 N.pl3   1  LGD1       -0.0737
      9  N9         0.3420   -0.5580    0.4050 N.ar    1  LGD1       -0.2027
     10  N10        1.0090   -2.1480   -1.3520 N.ar    1  LGD1       -0.1866
     11  N11        2.8980   -0.2150   -2.1390 N.ar    1  LGD1       -0.2224
     12  N12        3.2570    0.0860    0.3300 N.ar    1  LGD1       -0.2224
     13  C13       -0.9190   -4.3990    6.9510 C.3     1  LGD1        0.0189
     14  C14       -1.1070   -3.3290    5.8990 C.ar    1  LGD1       -0.0227
     15  C15       -2.0580   -5.3380    7.1440 C.3     1  LGD1        0.0044
     16  C16       -0.6580   -3.7100    8.2760 C.3     1  LGD1        0.0044
     17  C17        0.3110   -5.2790    6.5650 C.3     1  LGD1        0.0044
     18  C18        0.0050   -2.5630    5.4820 C.ar    1  LGD1       -0.0029
     19  C19       -2.3740   -3.0670    5.3370 C.ar    1  LGD1       -0.0029
     20  C20       -1.4260   -1.2800    4.0070 C.ar    1  LGD1        0.1271
     21  C21       -0.1900   -1.5310    4.5770 C.ar    1  LGD1        0.0199
     22  C22       -2.5230   -2.0890    4.3090 C.ar    1  LGD1        0.0199
     23  C23       -0.7980   -1.2090    0.6070 C.ar    1  LGD1        0.2125
     24  C24       -1.1430   -2.2070   -0.3380 C.ar    1  LGD1        0.2327
     25  C25       -0.2400   -2.6810   -1.2650 C.ar    1  LGD1        0.2651
     26  C26        1.1840   -1.0180   -0.6010 C.ar    1  LGD1        0.2028
     27  C27       -2.7210   -3.7350    0.8620 C.ar    1  LGD1        0.1793
     28  C28        2.5660   -0.3210   -0.8190 C.ar    1  LGD1        0.1990
     29  C29        0.0040   -3.9220   -3.3740 C.3     1  LGD1        0.2426
     30  C30       -1.8210   -4.4990    1.5890 C.ar    1  LGD1        0.1730
     31  C31       -4.0420   -3.6890    1.2250 C.ar    1  LGD1        0.0406
     32  C32       -2.3080   -5.2940    2.6620 C.ar    1  LGD1        0.0401
     33  C33       -0.3190   -2.7450   -4.3280 C.3     1  LGD1        0.2292
     34  C34       -4.4970   -4.4980    2.2450 C.ar    1  LGD1        0.0033
     35  C35       -3.6120   -5.2300    3.0280 C.ar    1  LGD1        0.0033
     36  C36        4.0710    0.4000   -2.3870 C.ar    1  LGD1        0.1023
     37  C37        4.4460    0.7100    0.0550 C.ar    1  LGD1        0.1023
     38  C38        4.8340    0.8120   -1.2990 C.ar    1  LGD1        0.0414
     39  C39        0.0830   -5.7810    1.4220 C.3     1  LGD1        0.2526
@<TRIPOS>BOND
     1    33     7    1
     2    33    29    1
     3     5    29    1
     4     5    25    1
     5    10    25   ar
     6    10    26   ar
     7    36    11   ar
     8    36    38   ar
     9    11    28   ar
    10    25    24   ar
    11    38    37   ar
    12    34    31   ar
    13    34    35   ar
    14    28    26    1
    15    28    12   ar
    16    26     9   ar
    17    31    27   ar
    18    37    12   ar
    19    24     4    1
    20    24    23   ar
    21     4    27    1
    22    27    30   ar
    23    35    32   ar
    24    15    13    1
    25     9    23   ar
    26    23     8    1
    27    30    32   ar
    28    30     6    1
    29     6    39    1
    30     8     1    1
    31    18    14   ar
    32    18    21   ar
    33    13    14    1
    34    13    17    1
    35    13    16    1
    36    14    19   ar
    37    21    20   ar
    38    20     1    1
    39    20    22   ar
    40    19    22   ar
    41     1     2    2
    42     1     3    2
@<TRIPOS>MOLECULE
16219006
 44 47 0 0 0
SMALL
GASTEIGER

@<TRIPOS>ATOM
      1 O           5.5762   -6.4321    7.1592 O.2     1  PRO11      -0.2738
      2 O           4.8228   -4.0265    3.6921 O.2     5  ASP55      -0.2735
      3 O           2.5421   -2.7193    6.2223 O.2     2  VAL22      -0.2738
      4 O           2.6800   -7.8934    1.7327 O.2     4  TRP44      -0.2738
      5 O           1.5606   -7.1131    5.4695 O.2     3  LEU33      -0.2738
      6 OD1         6.7390   -5.0658    0.8831 O.co2   5  ASP55      -0.5497
      7 OD2         5.9866   -3.7918   -0.8516 O.co2   5  ASP55      -0.5497
      8 N           5.6953   -6.1135    3.8647 N.am    1  PRO11      -0.2884
      9 N           5.1282   -4.3274    6.3846 N.am    2  VAL22      -0.3022
     10 N           2.8846   -5.6574    2.2241 N.am    5  ASP55      -0.3021
     11 N           2.0228   -4.8348    6.9302 N.am    3  LEU33      -0.3025
     12 N           0.6586   -5.7849    3.8378 N.am    4  TRP44      -0.3022
     13 NE1        -3.6056   -7.0655    2.7799 N.ar    4  TRP44      -0.3604
     14 CA          6.5448   -5.7671    5.0022 C.3     1  PRO11       0.1023
     15 CB          7.5333   -6.9320    5.1115 C.3     1  PRO11      -0.0243
     16 CG          6.7844   -8.0993    4.4812 C.3     1  PRO11      -0.0350
     17 CD          6.0176   -7.4335    3.3515 C.3     1  PRO11       0.0156
     18 C           5.7132   -5.5717    6.2901 C.2     1  PRO11       0.2342
     19 C           5.0172   -5.1335    3.1669 C.2     5  ASP55       0.2369
     20 CA          4.2402   -3.9457    7.4751 C.3     2  VAL22       0.1017
     21 CA          4.3022   -5.5256    1.8479 C.3     5  ASP55       0.1047
     22 CB          4.7472   -2.6701    8.1825 C.3     2  VAL22      -0.0197
     23 CA          0.8020   -4.9132    6.1396 C.3     3  LEU33       0.0996
     24 C           2.8578   -3.7408    6.8288 C.2     2  VAL22       0.2342
     25 CB          4.4488   -4.4407    0.7946 C.3     5  ASP55       0.0138
     26 CA          0.7955   -6.8124    2.7969 C.3     4  TRP44       0.1034
     27 CB         -0.4303   -5.2683    6.9842 C.3     3  LEU33      -0.0236
     28 CG         -0.9888   -4.1070    7.8350 C.3     3  LEU33      -0.0446
     29 C           2.2360   -6.8727    2.2550 C.2     4  TRP44       0.2343
     30 CB         -0.1465   -6.5618    1.6098 C.3     4  TRP44       0.0013
     31 C           1.0541   -6.0444    5.1284 C.2     3  LEU33       0.2340
     32 CG1         3.7603   -2.1899    9.2541 C.3     2  VAL22      -0.0605
     33 CG2         6.1097   -2.9191    8.8428 C.3     2  VAL22      -0.0605
     34 CG         -1.5924   -6.4959    2.0096 C.ar    4  TRP44      -0.0201
     35 CG          5.8635   -4.4346    0.2286 C.2     5  ASP55       0.0440
     36 CD1        -0.0913   -3.7434    9.0184 C.3     3  LEU33      -0.0626
     37 CD2        -2.3800   -4.4764    8.3608 C.3     3  LEU33      -0.0626
     38 CD2        -2.4545   -5.3541    1.9361 C.ar    4  TRP44       0.0029
     39 CD1        -2.3455   -7.5326    2.5266 C.ar    4  TRP44       0.0060
     40 CE2        -3.7014   -5.7395    2.4297 C.ar    4  TRP44       0.0467
     41 CE3        -2.2899   -4.0244    1.4949 C.ar    4  TRP44      -0.0523
     42 CZ2        -4.7904   -4.8628    2.5084 C.ar    4  TRP44      -0.0378
     43 CZ3        -3.3693   -3.1360    1.5632 C.ar    4  TRP44      -0.0611
     44 CH2        -4.6002   -3.5513    2.0643 C.ar    4  TRP44      -0.0598
@<TRIPOS>BOND
     1     1    18    2
     2     2    19    2
     3     3    24    2
     4     4    29    2
     5     5    31    2
     6     6    35   ar
     7     7    35   ar
     8     8    14    1
     9     8    17    1
    10     8    19   am
    11     9    18   am
    12     9    20    1
    13    10    21    1
    14    10    29   am
    15    11    23    1
    16    11    24   am
    17    12    26    1
    18    12    31   am
    19    13    39   ar
    20    13    40   ar
    21    14    15    1
    22    14    18    1
    23    15    16    1
    24    16    17    1
    25    19    21    1
    26    20    22    1
    27    20    24    1
    28    21    25    1
    29    22    32    1
    30    22    33    1
    31    23    27    1
    32    23    31    1
    33    25    35    1
    34    26    29    1
    35    26    30    1
    36    27    28    1
    37    28    36    1
    38    28    37    1
    39    30    34    1
    40    34    38   ar
    41    34    39   ar
    42    38    40   ar
    43    38    41   ar
    44    40    42   ar
    45    41    43   ar
    46    42    44   ar
    47    43    44   ar
