@<TRIPOS>MOLECULE
BOSENTAN_50CONFORMERS.pdb
 39 42 0 0 0
SMALL
GASTEIGER

@<TRIPOS>ATOM
      1  S1        -2.2100    0.8910    1.6560 S.O2    1  LGD1        0.0943
      2  O2        -3.6490    0.8670    2.0450 O.2     1  LGD1       -0.1483
      3  O3        -1.2600    1.5580    2.5080 O.2     1  LGD1       -0.1483
      4  O4        -2.3850   -2.9130   -0.0870 O.3     1  LGD1       -0.4427
      5  O5        -0.5280   -3.6880   -2.1330 O.3     1  LGD1       -0.4552
      6  O6        -2.6800   -1.2320   -2.4200 O.3     1  LGD1       -0.4684
      7  O7         0.5730   -5.7640   -3.9500 O.3     1  LGD1       -0.2162
      8  N8        -1.7610   -0.7060    1.4300 N.pl3   1  LGD1       -0.0737
      9  N9         0.3420   -0.5020    0.3260 N.ar    1  LGD1       -0.2027
     10  N10        0.9800   -2.1490   -1.2950 N.ar    1  LGD1       -0.1866
     11  N11        2.7090    0.3860   -1.7460 N.ar    1  LGD1       -0.2224
     12  N12        3.3510   -0.5520    0.3280 N.ar    1  LGD1       -0.2224
     13  C13       -1.3880    3.3940   -3.9040 C.3     1  LGD1        0.0189
     14  C14       -1.6690    2.8260   -2.4750 C.ar    1  LGD1       -0.0227
     15  C15       -2.3300    2.9240   -5.0310 C.3     1  LGD1        0.0044
     16  C16        0.0230    3.1680   -4.4080 C.3     1  LGD1        0.0044
     17  C17       -1.6750    4.9520   -3.8190 C.3     1  LGD1        0.0044
     18  C18       -0.6570    2.7740   -1.5080 C.ar    1  LGD1       -0.0029
     19  C19       -2.8800    2.1980   -2.1100 C.ar    1  LGD1       -0.0029
     20  C20       -2.0200    1.6530    0.0630 C.ar    1  LGD1        0.1271
     21  C21       -0.8150    2.2360   -0.2570 C.ar    1  LGD1        0.0199
     22  C22       -3.0480    1.5460   -0.8880 C.ar    1  LGD1        0.0199
     23  C23       -0.8250   -1.1310    0.5010 C.ar    1  LGD1        0.2125
     24  C24       -1.1650   -2.2800   -0.2740 C.ar    1  LGD1        0.2327
     25  C25       -0.2430   -2.7600   -1.1940 C.ar    1  LGD1        0.2651
     26  C26        1.1830   -1.0600   -0.5540 C.ar    1  LGD1        0.2028
     27  C27       -3.1620   -3.2130   -1.1610 C.ar    1  LGD1        0.1793
     28  C28        2.4780   -0.2990   -0.6400 C.ar    1  LGD1        0.1990
     29  C29       -0.3750   -5.1270   -1.7850 C.3     1  LGD1        0.2426
     30  C30       -3.2680   -2.4770   -2.3200 C.ar    1  LGD1        0.1730
     31  C31       -3.9780   -4.3280   -1.0640 C.ar    1  LGD1        0.0406
     32  C32       -4.1070   -2.8440   -3.3820 C.ar    1  LGD1        0.0401
     33  C33       -0.4930   -6.0060   -3.0100 C.3     1  LGD1        0.2292
     34  C34       -4.7580   -4.7850   -2.1190 C.ar    1  LGD1        0.0033
     35  C35       -4.8170   -4.0590   -3.2820 C.ar    1  LGD1        0.0033
     36  C36        3.9930    0.9670   -1.8590 C.ar    1  LGD1        0.1023
     37  C37        4.6300   -0.0210    0.2350 C.ar    1  LGD1        0.1023
     38  C38        4.8980    0.7820   -0.8340 C.ar    1  LGD1        0.0414
     39  C39       -1.8120   -0.9830   -3.6390 C.3     1  LGD1        0.2526
@<TRIPOS>BOND
     1    33     7    1
     2    33    29    1
     3     5    29    1
     4     5    25    1
     5    10    25   ar
     6    10    26   ar
     7    36    11   ar
     8    36    38   ar
     9    11    28   ar
    10    25    24   ar
    11    38    37   ar
    12    34    31   ar
    13    34    35   ar
    14    28    26    1
    15    28    12   ar
    16    26     9   ar
    17    31    27   ar
    18    37    12   ar
    19    24     4    1
    20    24    23   ar
    21     4    27    1
    22    27    30   ar
    23    35    32   ar
    24    15    13    1
    25     9    23   ar
    26    23     8    1
    27    30    32   ar
    28    30     6    1
    29     6    39    1
    30     8     1    1
    31    18    14   ar
    32    18    21   ar
    33    13    14    1
    34    13    17    1
    35    13    16    1
    36    14    19   ar
    37    21    20   ar
    38    20     1    1
    39    20    22   ar
    40    19    22   ar
    41     1     2    2
    42     1     3    2
@<TRIPOS>MOLECULE
11672244
 53 58 0 0 0
SMALL
GASTEIGER

@<TRIPOS>ATOM
      1 O          -0.6531    0.4942   -4.0573 O.3     1  LIG11      -0.4607
      2 O          -6.0480    3.7281   -0.5543 O.2     1  LIG11      -0.2968
      3 O           2.3284    5.1450   -7.4771 O.co2   1  LIG11      -0.5492
      4 O           2.3554    3.5465   -9.0868 O.co2   1  LIG11      -0.5492
      5 O           0.5955   -0.9880   -5.3050 O.2     1  LIG11      -0.2456
      6 O          -6.9712   -2.8996   -3.2997 O.3     1  LIG11      -0.5067
      7 O          -1.7866   -6.3590   -1.3319 O.2     1  LIG11      -0.2705
      8 O           2.7725   -4.7617   -0.1113 O.co2   1  LIG11      -0.5452
      9 O           3.5740   -4.9171   -2.2477 O.co2   1  LIG11      -0.5452
     10 N          -1.6485   -4.1604   -2.1178 N.am    1  LIG11      -0.2815
     11 C          -1.3363    3.4112   -5.1421 C.3     1  LIG11      -0.0160
     12 C          -1.4522    4.1059   -3.7353 C.3     1  LIG11      -0.0256
     13 C           0.1249    2.6588   -5.2173 C.3     1  LIG11       0.0318
     14 C          -2.9016    4.5895   -3.2646 C.3     1  LIG11      -0.0243
     15 C          -3.8920    3.3936   -3.4896 C.3     1  LIG11      -0.0235
     16 C          -2.5196    2.4340   -5.3757 C.3     1  LIG11      -0.0461
     17 C           1.2528    3.6730   -4.8718 C.2     1  LIG11      -0.0596
     18 C           2.6778    3.2949   -5.3298 C.3     1  LIG11      -0.0080
     19 C          -3.8920    2.9732   -4.9734 C.3     1  LIG11      -0.0483
     20 C           0.3185    2.0718   -6.6494 C.3     1  LIG11      -0.0392
     21 C          -0.3392    5.1673   -3.5740 C.3     1  LIG11      -0.0306
     22 C           2.7434    2.8624   -6.8132 C.3     1  LIG11       0.0167
     23 C          -5.3199    3.5279   -2.8608 C.3     1  LIG11       0.0267
     24 C          -2.8494    4.8555   -1.7317 C.3     1  LIG11      -0.0404
     25 C           1.7530    1.6926   -7.0188 C.3     1  LIG11      -0.0408
     26 C          -1.4336    4.4824   -6.2817 C.3     1  LIG11      -0.0584
     27 C           0.9942    4.7718   -4.1336 C.2     1  LIG11      -0.0835
     28 C           0.3520    1.5125   -4.1496 C.3     1  LIG11       0.1025
     29 C          -3.3600    5.8979   -3.9542 C.3     1  LIG11      -0.0590
     30 C           3.8177    4.2707   -4.9382 C.3     1  LIG11      -0.0405
     31 C           4.1640    2.3413   -7.1509 C.3     1  LIG11      -0.0412
     32 C          -4.2059    5.1172   -1.0942 C.3     1  LIG11       0.0069
     33 C           5.2324    3.7595   -5.3020 C.3     1  LIG11      -0.0343
     34 C          -5.2240    4.0507   -1.4164 C.2     1  LIG11       0.1392
     35 C           5.2743    3.3244   -6.7790 C.3     1  LIG11      -0.0470
     36 C          -6.2860    4.4356   -3.6360 C.3     1  LIG11      -0.0528
     37 C          -5.9735    2.1208   -2.7874 C.3     1  LIG11      -0.0528
     38 C           2.4412    3.9573   -7.8907 C.2     1  LIG11       0.0485
     39 C           6.2467    4.8999   -5.0892 C.3     1  LIG11      -0.0598
     40 C           5.6437    2.5943   -4.3772 C.3     1  LIG11      -0.0598
     41 C          -0.3632   -0.7083   -4.6040 C.2     1  LIG11       0.3320
     42 C          -1.3816   -1.7193   -4.2524 C.2     1  LIG11       0.0231
     43 C          -2.3192   -1.5491   -3.3079 C.2     1  LIG11      -0.0460
     44 C          -3.3126   -2.5904   -3.0032 C.ar    1  LIG11      -0.0001
     45 C          -2.9922   -3.8596   -2.4628 C.ar    1  LIG11       0.0411
     46 C          -4.6537   -2.2616   -3.2801 C.ar    1  LIG11      -0.0113
     47 C          -4.0359   -4.7707   -2.2455 C.ar    1  LIG11      -0.0364
     48 C          -5.6634   -3.1865   -3.0416 C.ar    1  LIG11       0.1175
     49 C          -5.3629   -4.4378   -2.5320 C.ar    1  LIG11      -0.0184
     50 C          -1.1658   -5.3291   -1.5650 C.2     1  LIG11       0.2411
     51 C           0.2452   -5.2272   -1.1294 C.2     1  LIG11       0.0021
     52 C           1.2564   -4.8547   -1.9272 C.2     1  LIG11      -0.0344
     53 C           2.6740   -4.8455   -1.3670 C.2     1  LIG11       0.0647
@<TRIPOS>BOND
     1     1    41    1
     2     1    28    1
     3     2    34    2
     4     3    38   ar
     5     4    38   ar
     6     5    41    2
     7     6    48    1
     8     7    50    2
     9     8    53   ar
    10     9    53   ar
    11    10    45    1
    12    10    50   am
    13    11    16    1
    14    11    12    1
    15    11    26    1
    16    11    13    1
    17    12    14    1
    18    13    20    1
    19    13    17    1
    20    13    28    1
    21    14    15    1
    22    14    24    1
    23    14    29    1
    24    15    19    1
    25    15    23    1
    26    16    19    1
    27    17    18    1
    28    17    27    2
    29    18    30    1
    30    18    22    1
    31    20    25    1
    32    21    27    1
    33    21    12    1
    34    22    31    1
    35    22    25    1
    36    22    38    1
    37    23    34    1
    38    23    37    1
    39    23    36    1
    40    24    32    1
    41    30    33    1
    42    31    35    1
    43    32    34    1
    44    33    35    1
    45    33    40    1
    46    33    39    1
    47    41    42    1
    48    42    43    2
    49    43    44    1
    50    44    46   ar
    51    44    45   ar
    52    45    47   ar
    53    46    48   ar
    54    47    49   ar
    55    48    49   ar
    56    50    51    1
    57    51    52    2
    58    52    53    1
