@<TRIPOS>MOLECULE
BOSENTAN_50CONFORMERS.pdb
 39 42 0 0 0
SMALL
GASTEIGER

@<TRIPOS>ATOM
      1  S1        -1.2370    0.1620    2.8570 S.O2    1  LGD1        0.0943
      2  O2        -0.4130    1.3820    2.4810 O.2     1  LGD1       -0.1483
      3  O3        -2.4530    0.3900    3.6750 O.2     1  LGD1       -0.1483
      4  O4        -2.3880   -2.7650   -0.1120 O.3     1  LGD1       -0.4427
      5  O5        -0.4890   -3.7900   -2.0520 O.3     1  LGD1       -0.4552
      6  O6        -1.1040   -3.8950    2.1700 O.3     1  LGD1       -0.4684
      7  O7        -0.7000   -5.4660   -4.4110 O.3     1  LGD1       -0.2162
      8  N8        -1.7620   -0.7360    1.5000 N.pl3   1  LGD1       -0.0737
      9  N9         0.3470   -0.5510    0.3410 N.ar    1  LGD1       -0.2027
     10  N10        0.9890   -2.1210   -1.3840 N.ar    1  LGD1       -0.1866
     11  N11        3.2780   -0.3800    0.5340 N.ar    1  LGD1       -0.2224
     12  N12        2.7470    0.2870   -1.8070 N.ar    1  LGD1       -0.2224
     13  C13        2.1080   -3.6810    6.4250 C.3     1  LGD1        0.0189
     14  C14        1.3330   -2.5870    5.6550 C.ar    1  LGD1       -0.0227
     15  C15        3.5950   -3.5340    6.3770 C.3     1  LGD1        0.0044
     16  C16        1.7960   -4.9780    5.7160 C.3     1  LGD1        0.0044
     17  C17        1.7710   -3.9110    7.8870 C.3     1  LGD1        0.0044
     18  C18        1.9210   -1.6830    4.7520 C.ar    1  LGD1       -0.0029
     19  C19       -0.0800   -2.6910    5.6780 C.ar    1  LGD1       -0.0029
     20  C20       -0.2550   -0.9230    3.9280 C.ar    1  LGD1        0.1271
     21  C21        1.1720   -0.8700    3.9210 C.ar    1  LGD1        0.0199
     22  C22       -0.8600   -1.8310    4.8160 C.ar    1  LGD1        0.0199
     23  C23       -0.8840   -1.1100    0.4780 C.ar    1  LGD1        0.2125
     24  C24       -1.1770   -2.1770   -0.3220 C.ar    1  LGD1        0.2327
     25  C25       -0.2380   -2.6790   -1.2270 C.ar    1  LGD1        0.2651
     26  C26        1.1970   -1.1130   -0.5260 C.ar    1  LGD1        0.2028
     27  C27       -2.5230   -4.0940    0.2060 C.ar    1  LGD1        0.1793
     28  C28        2.5370   -0.3470   -0.5690 C.ar    1  LGD1        0.1990
     29  C29       -1.3770   -3.5150   -3.1800 C.3     1  LGD1        0.2426
     30  C30       -1.8710   -4.6400    1.2460 C.ar    1  LGD1        0.1730
     31  C31       -3.4000   -4.9600   -0.5370 C.ar    1  LGD1        0.0406
     32  C32       -2.0650   -5.9920    1.6420 C.ar    1  LGD1        0.0401
     33  C33       -1.8600   -4.8150   -3.8350 C.3     1  LGD1        0.2292
     34  C34       -3.5370   -6.3420   -0.2630 C.ar    1  LGD1        0.0033
     35  C35       -2.8310   -6.8840    0.8430 C.ar    1  LGD1        0.0033
     36  C36        4.3580    0.4000    0.4620 C.ar    1  LGD1        0.1023
     37  C37        3.8670    1.0790   -1.8320 C.ar    1  LGD1        0.1023
     38  C38        4.6930    1.1800   -0.6750 C.ar    1  LGD1        0.0414
     39  C39        0.3750   -4.0230    2.0230 C.3     1  LGD1        0.2526
@<TRIPOS>BOND
     1    33     7    1
     2    33    29    1
     3     5    29    1
     4     5    25    1
     5    10    25   ar
     6    10    26   ar
     7    36    11   ar
     8    36    38   ar
     9    11    28   ar
    10    25    24   ar
    11    38    37   ar
    12    34    31   ar
    13    34    35   ar
    14    28    26    1
    15    28    12   ar
    16    26     9   ar
    17    31    27   ar
    18    37    12   ar
    19    24     4    1
    20    24    23   ar
    21     4    27    1
    22    27    30   ar
    23    35    32   ar
    24    15    13    1
    25     9    23   ar
    26    23     8    1
    27    30    32   ar
    28    30     6    1
    29     6    39    1
    30     8     1    1
    31    18    14   ar
    32    18    21   ar
    33    13    14    1
    34    13    17    1
    35    13    16    1
    36    14    19   ar
    37    21    20   ar
    38    20     1    1
    39    20    22   ar
    40    19    22   ar
    41     1     2    2
    42     1     3    2
@<TRIPOS>MOLECULE
108002
 38 42 0 0 0
SMALL
GASTEIGER

@<TRIPOS>ATOM
      1 O           2.5342   -5.2248    1.6416 O.co2   1  LIG11      -0.5495
      2 O           1.4582   -5.7204    3.5910 O.co2   1  LIG11      -0.5495
      3 O          -1.6259   -0.6811   -2.3444 O.3     1  LIG11      -0.4920
      4 O          -0.4695   -7.2474   -0.4247 O.3     1  LIG11      -0.4858
      5 O           2.7008   -0.2597    5.9759 O.3     1  LIG11      -0.4526
      6 O           0.6270   -0.3788    7.2054 O.3     1  LIG11      -0.4526
      7 O          -5.1693   -7.2277    0.0960 O.3     1  LIG11      -0.4950
      8 O           0.4827   -9.3678   -1.8552 O.co2   1  LIG11      -0.5463
      9 O           0.8160  -10.6115    0.0249 O.co2   1  LIG11      -0.5463
     10 C           0.3691   -4.3299    2.0405 C.3     1  LIG11       0.0203
     11 C          -0.1327   -4.5249    0.5867 C.3     1  LIG11       0.0218
     12 C           0.9481   -2.8941    2.1586 C.3     1  LIG11       0.0184
     13 C          -0.2860   -3.0804    0.1129 C.ar    1  LIG11      -0.0320
     14 C           0.2529   -2.1735    1.0292 C.ar    1  LIG11      -0.0353
     15 C           0.7836   -2.2242    3.5167 C.ar    1  LIG11      -0.0356
     16 C          -1.4677   -5.2827    0.5313 C.ar    1  LIG11       0.0026
     17 C           1.5570   -5.2006    2.4379 C.2     1  LIG11       0.0466
     18 C          -0.8941   -2.6261   -1.0569 C.ar    1  LIG11      -0.0159
     19 C           0.2022   -0.8049    0.7951 C.ar    1  LIG11      -0.0542
     20 C          -1.0107   -1.2481   -1.2614 C.ar    1  LIG11       0.1208
     21 C          -1.5793   -6.5885    0.0313 C.ar    1  LIG11       0.1283
     22 C           1.8844   -1.5415    4.0706 C.ar    1  LIG11      -0.0124
     23 C          -0.4331   -2.2609    4.2376 C.ar    1  LIG11      -0.0543
     24 C          -0.4412   -0.3450   -0.3537 C.ar    1  LIG11      -0.0196
     25 C          -2.6505   -4.6530    0.9786 C.ar    1  LIG11      -0.0510
     26 C           1.7385   -0.9503    5.3055 C.ar    1  LIG11       0.1665
     27 C          -0.5498   -1.6585    5.4958 C.ar    1  LIG11      -0.0159
     28 C          -2.8432   -7.1849   -0.1154 C.ar    1  LIG11       0.0221
     29 C          -3.9031   -5.2653    0.8604 C.ar    1  LIG11      -0.0194
     30 C           0.5551   -1.0132    6.0023 C.ar    1  LIG11       0.1662
     31 C          -4.0064   -6.5323    0.2965 C.ar    1  LIG11       0.1236
     32 C          -2.8702   -1.2792   -2.7154 C.3     1  LIG11       0.0893
     33 C           2.0109    0.0251    7.2061 C.3     1  LIG11       0.2332
     34 C          -0.2354   -8.4991    0.2860 C.3     1  LIG11       0.1287
     35 C          -3.9606   -0.2069   -2.7106 C.3     1  LIG11      -0.0215
     36 C           0.4392   -9.5728   -0.6042 C.2     1  LIG11       0.0789
     37 C          -6.3751   -6.5695    0.4523 C.3     1  LIG11       0.0788
     38 C          -3.6549    0.9618   -3.6362 C.3     1  LIG11      -0.0622
@<TRIPOS>BOND
     1     1    17   ar
     2     2    17   ar
     3     3    20    1
     4     3    32    1
     5     4    21    1
     6     4    34    1
     7     5    26    1
     8     5    33    1
     9     6    30    1
    10     6    33    1
    11     7    31    1
    12     7    37    1
    13     8    36   ar
    14     9    36   ar
    15    10    11    1
    16    10    12    1
    17    10    17    1
    18    11    13    1
    19    11    16    1
    20    12    14    1
    21    12    15    1
    22    13    14   ar
    23    13    18   ar
    24    14    19   ar
    25    15    22   ar
    26    15    23   ar
    27    16    21   ar
    28    16    25   ar
    29    18    20   ar
    30    19    24   ar
    31    20    24   ar
    32    21    28   ar
    33    22    26   ar
    34    23    27   ar
    35    25    29   ar
    36    26    30   ar
    37    27    30   ar
    38    28    31   ar
    39    29    31   ar
    40    32    35    1
    41    34    36    1
    42    35    38    1
