@<TRIPOS>MOLECULE
BOSENTAN_50CONFORMERS.pdb
 39 42 0 0 0
SMALL
GASTEIGER

@<TRIPOS>ATOM
      1  S1        -2.2130   -0.9610    2.7860 S.O2    1  LGD1        0.0943
      2  O2        -1.2310   -1.8870    3.3660 O.2     1  LGD1       -0.1483
      3  O3        -2.3150    0.3660    3.4370 O.2     1  LGD1       -0.1483
      4  O4        -2.4510   -2.9280   -0.0960 O.3     1  LGD1       -0.4427
      5  O5        -0.5660   -3.7200   -2.0470 O.3     1  LGD1       -0.4552
      6  O6        -0.6560   -4.8360    1.1410 O.3     1  LGD1       -0.4684
      7  O7        -1.0530   -6.3730   -2.7650 O.3     1  LGD1       -0.2162
      8  N8        -1.7870   -0.6080    1.2480 N.pl3   1  LGD1       -0.0737
      9  N9         0.3610   -0.5810    0.4590 N.ar    1  LGD1       -0.2027
     10  N10        0.9730   -2.0690   -1.4600 N.ar    1  LGD1       -0.1866
     11  N11        3.5900   -1.1320   -1.2680 N.ar    1  LGD1       -0.2224
     12  N12        2.5820    0.8690   -0.0850 N.ar    1  LGD1       -0.2224
     13  C13       -7.3260   -3.9710    1.5890 C.3     1  LGD1        0.0189
     14  C14       -6.0780   -3.1800    1.8900 C.ar    1  LGD1       -0.0227
     15  C15       -7.6350   -3.9770    0.1120 C.3     1  LGD1        0.0044
     16  C16       -8.5540   -3.4160    2.3330 C.3     1  LGD1        0.0044
     17  C17       -7.2090   -5.4830    1.9100 C.3     1  LGD1        0.0044
     18  C18       -5.9650   -1.8470    1.5700 C.ar    1  LGD1       -0.0029
     19  C19       -5.0280   -3.7830    2.6350 C.ar    1  LGD1       -0.0029
     20  C20       -3.7990   -1.7080    2.5850 C.ar    1  LGD1        0.1271
     21  C21       -4.8750   -1.0430    2.0160 C.ar    1  LGD1        0.0199
     22  C22       -3.9180   -3.0410    3.0260 C.ar    1  LGD1        0.0199
     23  C23       -0.8110   -1.2550    0.5910 C.ar    1  LGD1        0.2125
     24  C24       -1.1400   -2.3210   -0.2160 C.ar    1  LGD1        0.2327
     25  C25       -0.2180   -2.6770   -1.2160 C.ar    1  LGD1        0.2651
     26  C26        1.1700   -1.0450   -0.5500 C.ar    1  LGD1        0.2028
     27  C27       -2.7100   -4.3130   -0.0590 C.ar    1  LGD1        0.1793
     28  C28        2.6010   -0.3900   -0.5990 C.ar    1  LGD1        0.1990
     29  C29        0.4460   -4.8130   -1.9160 C.3     1  LGD1        0.2426
     30  C30       -1.9410   -5.1940    0.6780 C.ar    1  LGD1        0.1730
     31  C31       -3.9190   -4.7220   -0.5350 C.ar    1  LGD1        0.0406
     32  C32       -2.2500   -6.5580    0.7410 C.ar    1  LGD1        0.0401
     33  C33        0.2050   -5.7470   -3.0780 C.3     1  LGD1        0.2292
     34  C34       -4.1890   -6.1270   -0.6620 C.ar    1  LGD1        0.0033
     35  C35       -3.3490   -6.9720    0.0120 C.ar    1  LGD1        0.0033
     36  C36        4.8260   -0.5880   -1.3240 C.ar    1  LGD1        0.1023
     37  C37        3.8140    1.4510   -0.2760 C.ar    1  LGD1        0.1023
     38  C38        4.8740    0.7260   -0.7820 C.ar    1  LGD1        0.0414
     39  C39       -0.1790   -5.1290    2.4860 C.3     1  LGD1        0.2526
@<TRIPOS>BOND
     1    33     7    1
     2    33    29    1
     3     5    29    1
     4     5    25    1
     5    10    25   ar
     6    10    26   ar
     7    36    11   ar
     8    36    38   ar
     9    11    28   ar
    10    25    24   ar
    11    38    37   ar
    12    34    31   ar
    13    34    35   ar
    14    28    26    1
    15    28    12   ar
    16    26     9   ar
    17    31    27   ar
    18    37    12   ar
    19    24     4    1
    20    24    23   ar
    21     4    27    1
    22    27    30   ar
    23    35    32   ar
    24    15    13    1
    25     9    23   ar
    26    23     8    1
    27    30    32   ar
    28    30     6    1
    29     6    39    1
    30     8     1    1
    31    18    14   ar
    32    18    21   ar
    33    13    14    1
    34    13    17    1
    35    13    16    1
    36    14    19   ar
    37    21    20   ar
    38    20     1    1
    39    20    22   ar
    40    19    22   ar
    41     1     2    2
    42     1     3    2
@<TRIPOS>MOLECULE
156690
 38 41 0 0 0
SMALL
GASTEIGER

@<TRIPOS>ATOM
      1 S          -3.6093   -6.0455    3.3491 S.O2    1  LIG11       0.0741
      2 O          -9.9448   -3.4610    0.4815 O.2     1  LIG11      -0.2756
      3 O          -5.0240   -6.0093    3.6647 O.2     1  LIG11      -0.1499
      4 O          -2.6810   -5.1112    3.9475 O.2     1  LIG11      -0.1499
      5 O          -6.9840    0.3809    3.2134 O.2     1  LIG11      -0.4436
      6 O           0.3483   -8.1731    3.6567 O.2     1  LIG11      -0.3578
      7 N          -7.7314   -3.2035   -0.0275 N.am    1  LIG11      -0.3002
      8 N          -3.1060   -7.5982    3.8219 N.pl3   1  LIG11      -0.1965
      9 N          -5.1069    0.7200    4.4206 N.ar    1  LIG11      -0.2175
     10 N          -0.8830   -7.9876    3.0646 N.ar    1  LIG11      -0.0614
     11 C          -9.5101   -5.4802    2.5525 C.3     1  LIG11      -0.0295
     12 C          -8.3836   -4.6371    1.9045 C.3     1  LIG11       0.0290
     13 C          -8.8630   -6.3382    3.6614 C.3     1  LIG11      -0.0596
     14 C         -10.1459   -6.4279    1.5213 C.3     1  LIG11      -0.0596
     15 C         -10.5923   -4.6044    3.2043 C.3     1  LIG11      -0.0596
     16 C          -8.7718   -3.7431    0.7250 C.2     1  LIG11       0.2161
     17 C          -6.3376   -3.6459    0.0514 C.3     1  LIG11       0.0400
     18 C          -5.4944   -3.0011    1.1425 C.ar    1  LIG11      -0.0216
     19 C          -4.2068   -3.5140    1.4660 C.ar    1  LIG11      -0.0113
     20 C          -3.6782   -4.7658    0.8669 C.ar    1  LIG11       0.0090
     21 C          -8.0585   -2.2836   -1.1082 C.3     1  LIG11       0.0035
     22 C          -5.9567   -1.8371    1.7988 C.ar    1  LIG11      -0.0442
     23 C          -3.4752   -5.9786    1.5716 C.ar    1  LIG11       0.1162
     24 C          -3.4149   -2.7818    2.3660 C.ar    1  LIG11      -0.0529
     25 C          -5.1896   -1.1719    2.7642 C.ar    1  LIG11       0.0372
     26 C          -3.9040   -1.6478    3.0223 C.ar    1  LIG11      -0.0489
     27 C          -3.4230   -4.7776   -0.5219 C.ar    1  LIG11      -0.0521
     28 C          -3.1498   -7.1579    0.8783 C.ar    1  LIG11      -0.0345
     29 C          -3.0739   -5.9477   -1.1988 C.ar    1  LIG11      -0.0611
     30 C          -5.6986   -0.0128    3.4939 C.ar    1  LIG11       0.2271
     31 C          -2.9568   -7.1414   -0.5012 C.ar    1  LIG11      -0.0599
     32 C          -1.7441   -7.7828    4.0633 C.ar    1  LIG11       0.1837
     33 C          -1.1014   -7.8389    5.3270 C.ar    1  LIG11       0.0342
     34 C           0.2193   -8.0804    5.0048 C.ar    1  LIG11       0.1390
     35 C          -1.6648   -7.6264    6.6777 C.3     1  LIG11      -0.0330
     36 C          -7.2004    1.4378    4.0433 C.ar    1  LIG11       0.1125
     37 C          -6.0597    1.6407    4.7753 C.ar    1  LIG11       0.0663
     38 C           1.4595   -8.2289    5.7909 C.3     1  LIG11      -0.0034
@<TRIPOS>BOND
     1     1     3    2
     2     1     4    2
     3     1     8    1
     4     1    23    1
     5     2    16    2
     6     5    30   ar
     7     5    36   ar
     8     6    10   ar
     9     6    34   ar
    10     7    16   am
    11     7    17    1
    12     7    21    1
    13     8    32    1
    14     9    30   ar
    15     9    37   ar
    16    10    32   ar
    17    11    12    1
    18    11    13    1
    19    11    14    1
    20    11    15    1
    21    12    16    1
    22    17    18    1
    23    18    19   ar
    24    18    22   ar
    25    19    20    1
    26    19    24   ar
    27    20    23   ar
    28    20    27   ar
    29    22    25   ar
    30    23    28   ar
    31    24    26   ar
    32    25    26   ar
    33    25    30    1
    34    27    29   ar
    35    28    31   ar
    36    29    31   ar
    37    32    33   ar
    38    33    34   ar
    39    33    35    1
    40    34    38    1
    41    36    37   ar
