@<TRIPOS>MOLECULE
BOSENTAN_50CONFORMERS.pdb
 39 42 0 0 0
SMALL
GASTEIGER

@<TRIPOS>ATOM
      1  S1        -1.6380    0.4520    2.5530 S.O2    1  LGD1        0.0943
      2  O2        -0.9430    1.5530    1.8690 O.2     1  LGD1       -0.1483
      3  O3        -3.0960    0.5500    3.0770 O.2     1  LGD1       -0.1483
      4  O4        -2.4120   -2.8220   -0.2000 O.3     1  LGD1       -0.4427
      5  O5        -0.5340   -3.8120   -2.0060 O.3     1  LGD1       -0.4552
      6  O6        -0.4910   -4.3080    1.3710 O.3     1  LGD1       -0.4684
      7  O7        -0.4400   -6.6010   -2.4770 O.3     1  LGD1       -0.2162
      8  N8        -1.8270   -0.7290    1.3910 N.pl3   1  LGD1       -0.0737
      9  N9         0.4360   -0.6140    0.4870 N.ar    1  LGD1       -0.2027
     10  N10        0.8980   -2.0270   -1.4580 N.ar    1  LGD1       -0.1866
     11  N11        2.6950    0.8870   -0.3470 N.ar    1  LGD1       -0.2224
     12  N12        3.6270   -1.2550   -1.1730 N.ar    1  LGD1       -0.2224
     13  C13        1.7130   -2.4230    6.7540 C.3     1  LGD1        0.0189
     14  C14        0.8270   -1.7620    5.6840 C.ar    1  LGD1       -0.0227
     15  C15        1.0380   -3.2710    7.8820 C.3     1  LGD1        0.0044
     16  C16        2.4680   -1.2690    7.5150 C.3     1  LGD1        0.0044
     17  C17        2.6410   -3.4500    6.1780 C.3     1  LGD1        0.0044
     18  C18        1.4580   -1.1590    4.5770 C.ar    1  LGD1       -0.0029
     19  C19       -0.5930   -1.8260    5.6670 C.ar    1  LGD1       -0.0029
     20  C20       -0.6330   -0.2730    3.7730 C.ar    1  LGD1        0.1271
     21  C21        0.7930   -0.3520    3.6620 C.ar    1  LGD1        0.0199
     22  C22       -1.2860   -1.0290    4.7660 C.ar    1  LGD1        0.0199
     23  C23       -0.8480   -1.1160    0.4900 C.ar    1  LGD1        0.2125
     24  C24       -1.1770   -2.1910   -0.3460 C.ar    1  LGD1        0.2327
     25  C25       -0.2150   -2.7500   -1.1900 C.ar    1  LGD1        0.2651
     26  C26        1.2490   -1.0370   -0.5600 C.ar    1  LGD1        0.2028
     27  C27       -2.5510   -4.1770    0.1130 C.ar    1  LGD1        0.1793
     28  C28        2.6410   -0.3920   -0.7200 C.ar    1  LGD1        0.1990
     29  C29        0.6120   -4.5010   -2.4450 C.3     1  LGD1        0.2426
     30  C30       -1.6150   -4.9470    0.8760 C.ar    1  LGD1        0.1730
     31  C31       -3.6600   -4.7870   -0.4160 C.ar    1  LGD1        0.0406
     32  C32       -1.8490   -6.2890    1.1500 C.ar    1  LGD1        0.0401
     33  C33        0.1340   -5.6730   -3.3000 C.3     1  LGD1        0.2292
     34  C34       -3.8910   -6.1580   -0.1930 C.ar    1  LGD1        0.0033
     35  C35       -2.9220   -6.9580    0.5020 C.ar    1  LGD1        0.0033
     36  C36        4.0070    1.3460   -0.2270 C.ar    1  LGD1        0.1023
     37  C37        4.8520   -0.7130   -1.2390 C.ar    1  LGD1        0.1023
     38  C38        5.0570    0.5420   -0.6370 C.ar    1  LGD1        0.0414
     39  C39       -0.6190   -3.7450    2.7830 C.3     1  LGD1        0.2526
@<TRIPOS>BOND
     1    33     7    1
     2    33    29    1
     3     5    29    1
     4     5    25    1
     5    10    25   ar
     6    10    26   ar
     7    36    11   ar
     8    36    38   ar
     9    11    28   ar
    10    25    24   ar
    11    38    37   ar
    12    34    31   ar
    13    34    35   ar
    14    28    26    1
    15    28    12   ar
    16    26     9   ar
    17    31    27   ar
    18    37    12   ar
    19    24     4    1
    20    24    23   ar
    21     4    27    1
    22    27    30   ar
    23    35    32   ar
    24    15    13    1
    25     9    23   ar
    26    23     8    1
    27    30    32   ar
    28    30     6    1
    29     6    39    1
    30     8     1    1
    31    18    14   ar
    32    18    21   ar
    33    13    14    1
    34    13    17    1
    35    13    16    1
    36    14    19   ar
    37    21    20   ar
    38    20     1    1
    39    20    22   ar
    40    19    22   ar
    41     1     2    2
    42     1     3    2
@<TRIPOS>MOLECULE
9871593
 37 40 0 0 0
SMALL
GASTEIGER

@<TRIPOS>ATOM
      1 O          -0.2655    0.2414    7.2122 O.3     1  LIG11      -0.4526
      2 O           1.3027    1.3941    5.7869 O.3     1  LIG11      -0.4526
      3 O          -1.3455    0.2331   -2.1354 O.3     1  LIG11      -0.4913
      4 O           1.5160   -3.4207   -1.0365 O.3     1  LIG11      -0.4913
      5 O           0.9144   -1.5098   -2.6667 O.3     1  LIG11      -0.4885
      6 O          -3.5163   -5.0076    3.6183 O.2     1  LIG11      -0.2870
      7 O          -0.0929   -5.5476    3.8463 O.co2   1  LIG11      -0.5446
      8 O          -0.5753   -4.6682    5.9066 O.co2   1  LIG11      -0.5446
      9 O          -3.2841   -7.2543   -2.1969 O.3     1  LIG11      -0.4951
     10 C          -2.2554   -2.2409    2.0496 C.3     1  LIG11       0.0021
     11 C          -1.8832   -3.4086    2.9249 C.2     1  LIG11       0.0135
     12 C          -1.4445   -2.0831    0.7682 C.ar    1  LIG11      -0.0358
     13 C          -0.9891   -3.3682    3.9400 C.2     1  LIG11       0.0117
     14 C          -0.3115   -2.1413    4.4015 C.ar    1  LIG11      -0.0121
     15 C          -2.7219   -4.6413    2.7559 C.2     1  LIG11       0.1901
     16 C          -0.3600   -2.9063    0.4391 C.ar    1  LIG11      -0.0126
     17 C          -1.7647   -1.0318   -0.1032 C.ar    1  LIG11      -0.0126
     18 C          -0.6514   -1.5968    5.6513 C.ar    1  LIG11      -0.0084
     19 C          -0.0557   -0.4139    6.0375 C.ar    1  LIG11       0.1668
     20 C           0.6286   -1.4664    3.5916 C.ar    1  LIG11      -0.0503
     21 C           0.8403    0.2430    5.2271 C.ar    1  LIG11       0.1663
     22 C          -1.0191   -0.7797   -1.2687 C.ar    1  LIG11       0.1654
     23 C           0.4130   -2.6656   -0.7016 C.ar    1  LIG11       0.1654
     24 C          -2.7779   -5.2921    1.4333 C.ar    1  LIG11       0.0222
     25 C           0.0807   -1.6068   -1.5764 C.ar    1  LIG11       0.2035
     26 C           1.2016   -0.2547    3.9957 C.ar    1  LIG11      -0.0156
     27 C          -0.5316   -4.6640    4.6452 C.2     1  LIG11       0.0726
     28 C           0.6532    1.3404    7.0735 C.3     1  LIG11       0.2332
     29 C          -3.7418   -4.8788    0.5075 C.ar    1  LIG11      -0.0475
     30 C          -1.9612   -6.3894    1.1566 C.ar    1  LIG11      -0.0475
     31 C          -3.8619   -5.5429   -0.7127 C.ar    1  LIG11      -0.0193
     32 C          -2.1024   -7.0691   -0.0597 C.ar    1  LIG11      -0.0193
     33 C          -3.0644   -6.6546   -0.9858 C.ar    1  LIG11       0.1201
     34 C          -2.2008    1.2624   -1.6553 C.3     1  LIG11       0.0790
     35 C           2.1162   -4.1717    0.0153 C.3     1  LIG11       0.0790
     36 C           0.8613   -0.3585   -3.4882 C.3     1  LIG11       0.0791
     37 C          -3.2456   -8.6772   -2.1518 C.3     1  LIG11       0.0788
@<TRIPOS>BOND
     1     1    19    1
     2     1    28    1
     3     2    28    1
     4     2    21    1
     5     3    22    1
     6     3    34    1
     7     4    23    1
     8     4    35    1
     9     5    25    1
    10     5    36    1
    11     6    15    2
    12     7    27   ar
    13     8    27   ar
    14     9    33    1
    15     9    37    1
    16    10    11    1
    17    10    12    1
    18    11    13    2
    19    11    15    1
    20    12    16   ar
    21    12    17   ar
    22    13    14    1
    23    13    27    1
    24    14    20   ar
    25    14    18   ar
    26    15    24    1
    27    16    23   ar
    28    17    22   ar
    29    18    19   ar
    30    19    21   ar
    31    20    26   ar
    32    21    26   ar
    33    22    25   ar
    34    23    25   ar
    35    24    29   ar
    36    24    30   ar
    37    29    31   ar
    38    30    32   ar
    39    31    33   ar
    40    32    33   ar
