@<TRIPOS>MOLECULE
BOSENTAN_50CONFORMERS.pdb
 39 42 0 0 0
SMALL
GASTEIGER

@<TRIPOS>ATOM
      1  S1        -1.4970   -0.2320    3.0730 S.O2    1  LGD1        0.0943
      2  O2        -0.3630    0.7980    3.0210 O.2     1  LGD1       -0.1483
      3  O3        -2.8400    0.1150    3.5770 O.2     1  LGD1       -0.1483
      4  O4        -2.4860   -2.8570   -0.3780 O.3     1  LGD1       -0.4427
      5  O5        -0.5060   -3.8200   -2.0000 O.3     1  LGD1       -0.4552
      6  O6        -1.0740   -5.1560    0.5820 O.3     1  LGD1       -0.4684
      7  O7        -2.5120   -4.9770   -3.9700 O.3     1  LGD1       -0.2162
      8  N8        -1.8240   -0.6470    1.4540 N.pl3   1  LGD1       -0.0737
      9  N9         0.3590   -0.6120    0.4410 N.ar    1  LGD1       -0.2027
     10  N10        0.9800   -2.0580   -1.5100 N.ar    1  LGD1       -0.1866
     11  N11        3.6690   -1.0400   -1.1310 N.ar    1  LGD1       -0.2224
     12  N12        2.6010    0.7470    0.2570 N.ar    1  LGD1       -0.2224
     13  C13       -0.0170   -5.3240    5.9540 C.3     1  LGD1        0.0189
     14  C14       -0.3260   -4.0730    5.1580 C.ar    1  LGD1       -0.0227
     15  C15       -0.8510   -6.5200    5.5670 C.3     1  LGD1        0.0044
     16  C16       -0.1920   -5.1420    7.4980 C.3     1  LGD1        0.0044
     17  C17        1.4200   -5.8750    5.6710 C.3     1  LGD1        0.0044
     18  C18        0.6590   -3.3060    4.5660 C.ar    1  LGD1       -0.0029
     19  C19       -1.6760   -3.6790    5.0810 C.ar    1  LGD1       -0.0029
     20  C20       -1.0170   -1.8220    3.7060 C.ar    1  LGD1        0.1271
     21  C21        0.3170   -2.1970    3.7830 C.ar    1  LGD1        0.0199
     22  C22       -2.0380   -2.5950    4.2780 C.ar    1  LGD1        0.0199
     23  C23       -0.8900   -1.1790    0.5640 C.ar    1  LGD1        0.2125
     24  C24       -1.1780   -2.1780   -0.3560 C.ar    1  LGD1        0.2327
     25  C25       -0.2000   -2.6900   -1.2210 C.ar    1  LGD1        0.2651
     26  C26        1.2420   -1.0950   -0.5640 C.ar    1  LGD1        0.2028
     27  C27       -2.9640   -3.5970    0.7090 C.ar    1  LGD1        0.1793
     28  C28        2.6130   -0.4120   -0.4220 C.ar    1  LGD1        0.1990
     29  C29       -0.8110   -3.3870   -3.3530 C.3     1  LGD1        0.2426
     30  C30       -2.2610   -4.7320    1.1870 C.ar    1  LGD1        0.1730
     31  C31       -4.0730   -3.1600    1.4070 C.ar    1  LGD1        0.0406
     32  C32       -2.8110   -5.4740    2.2720 C.ar    1  LGD1        0.0401
     33  C33       -1.1230   -4.7170   -4.0600 C.3     1  LGD1        0.2292
     34  C34       -4.6190   -3.9340    2.4340 C.ar    1  LGD1        0.0033
     35  C35       -4.0120   -5.1100    2.7860 C.ar    1  LGD1        0.0033
     36  C36        4.8530   -0.3880   -1.0650 C.ar    1  LGD1        0.1023
     37  C37        3.8370    1.3390    0.3860 C.ar    1  LGD1        0.1023
     38  C38        4.9320    0.7620   -0.2420 C.ar    1  LGD1        0.0414
     39  C39        0.0140   -5.4020    1.4970 C.3     1  LGD1        0.2526
@<TRIPOS>BOND
     1    33     7    1
     2    33    29    1
     3     5    29    1
     4     5    25    1
     5    10    25   ar
     6    10    26   ar
     7    36    11   ar
     8    36    38   ar
     9    11    28   ar
    10    25    24   ar
    11    38    37   ar
    12    34    31   ar
    13    34    35   ar
    14    28    26    1
    15    28    12   ar
    16    26     9   ar
    17    31    27   ar
    18    37    12   ar
    19    24     4    1
    20    24    23   ar
    21     4    27    1
    22    27    30   ar
    23    35    32   ar
    24    15    13    1
    25     9    23   ar
    26    23     8    1
    27    30    32   ar
    28    30     6    1
    29     6    39    1
    30     8     1    1
    31    18    14   ar
    32    18    21   ar
    33    13    14    1
    34    13    17    1
    35    13    16    1
    36    14    19   ar
    37    21    20   ar
    38    20     1    1
    39    20    22   ar
    40    19    22   ar
    41     1     2    2
    42     1     3    2
@<TRIPOS>MOLECULE
*****
 29 31 0 0 0
SMALL
GASTEIGER

@<TRIPOS>ATOM
      1 BR         -6.0138   -5.5628    1.4000 Br      1  LIG11      -0.0503
      2 BR          6.1342    2.5754   -1.0097 Br      1  LIG11      -0.0472
      3 S          -2.9315   -0.1501    5.2547 S.O2    1  LIG11       0.1079
      4 O           0.4734   -3.7055    2.4367 O.3     1  LIG11      -0.4724
      5 O          -4.0724    0.1981    6.0665 O.2     1  LIG11      -0.1383
      6 O          -1.8539    0.7716    5.0120 O.2     1  LIG11      -0.1383
      7 O           3.4828   -2.4714    0.7013 O.3     1  LIG11      -0.4590
      8 N          -3.5290   -0.5495    3.7574 N.3     1  LIG11      -0.1906
      9 N          -2.3434   -1.6176    5.7984 N.pl3   1  LIG11      -0.1891
     10 N          -0.0893   -1.5969    5.8952 N.ar    1  LIG11      -0.2186
     11 N           1.3285   -2.5397    4.2556 N.ar    1  LIG11      -0.2008
     12 N           5.0011   -1.3846   -0.6234 N.ar    1  LIG11      -0.2022
     13 N           3.6162   -0.1239    0.8557 N.ar    1  LIG11      -0.2022
     14 C          -1.0772   -2.8414    4.0345 C.ar    1  LIG11       0.0848
     15 C          -1.1365   -2.0668    5.1945 C.ar    1  LIG11       0.1532
     16 C          -2.2627   -3.4744    3.3864 C.ar    1  LIG11      -0.0094
     17 C           0.2412   -3.0096    3.6068 C.ar    1  LIG11       0.2276
     18 C          -3.3344   -3.9767    4.1562 C.ar    1  LIG11      -0.0527
     19 C          -2.3725   -3.6301    1.9907 C.ar    1  LIG11      -0.0527
     20 C           1.8203   -3.6814    1.9469 C.3     1  LIG11       0.1252
     21 C          -4.4562   -4.5775    3.5718 C.ar    1  LIG11      -0.0472
     22 C          -3.4768   -4.2633    1.4001 C.ar    1  LIG11      -0.0472
     23 C           1.1082   -1.8583    5.3785 C.ar    1  LIG11       0.1219
     24 C           2.2200   -2.3268    1.3516 C.3     1  LIG11       0.1267
     25 C          -4.5174   -4.7272    2.1938 C.ar    1  LIG11       0.0179
     26 C           4.0261   -1.2742    0.2922 C.ar    1  LIG11       0.3180
     27 C           5.5986   -0.2317   -0.9967 C.ar    1  LIG11       0.0483
     28 C           4.2580    0.9950    0.4550 C.ar    1  LIG11       0.0483
     29 C           5.2665    0.9983   -0.4796 C.ar    1  LIG11       0.0543
@<TRIPOS>BOND
     1     1    25    1
     2     2    29    1
     3     3     9    1
     4     3     8    1
     5     3     6    2
     6     3     5    2
     7     4    17    1
     8     4    20    1
     9     7    24    1
    10     7    26    1
    11     9    15    1
    12    10    15   ar
    13    10    23   ar
    14    11    17   ar
    15    11    23   ar
    16    12    26   ar
    17    12    27   ar
    18    13    26   ar
    19    13    28   ar
    20    14    15   ar
    21    14    17   ar
    22    16    18   ar
    23    16    19   ar
    24    16    14    1
    25    18    21   ar
    26    19    22   ar
    27    20    24    1
    28    21    25   ar
    29    22    25   ar
    30    27    29   ar
    31    28    29   ar
