@<TRIPOS>MOLECULE
BOSENTAN_50CONFORMERS.pdb
 39 42 0 0 0
SMALL
GASTEIGER

@<TRIPOS>ATOM
      1  S1        -2.5440    0.8820    1.3810 S.O2    1  LGD1        0.0943
      2  O2        -3.0580    1.0090   -0.0300 O.2     1  LGD1       -0.1483
      3  O3        -3.4510    1.0070    2.5580 O.2     1  LGD1       -0.1483
      4  O4        -2.5030   -2.6290   -0.5280 O.3     1  LGD1       -0.4427
      5  O5        -0.4920   -3.8130   -2.0760 O.3     1  LGD1       -0.4552
      6  O6        -2.0670   -1.1970   -2.9360 O.3     1  LGD1       -0.4684
      7  O7         0.0690   -6.9230   -2.9370 O.3     1  LGD1       -0.2162
      8  N8        -1.8600   -0.6450    1.4930 N.pl3   1  LGD1       -0.0737
      9  N9         0.4100   -0.5870    0.4360 N.ar    1  LGD1       -0.2027
     10  N10        0.9660   -2.0980   -1.4610 N.ar    1  LGD1       -0.1866
     11  N11        2.6500    0.7480   -1.3020 N.ar    1  LGD1       -0.2224
     12  N12        3.5170   -0.9850    0.1730 N.ar    1  LGD1       -0.2224
     13  C13        2.2420    4.4520    2.1170 C.3     1  LGD1        0.0189
     14  C14        1.0250    3.4900    1.9820 C.ar    1  LGD1       -0.0227
     15  C15        2.0010    5.4460    3.2800 C.3     1  LGD1        0.0044
     16  C16        2.6730    5.2910    0.8990 C.3     1  LGD1        0.0044
     17  C17        3.5210    3.6960    2.5530 C.3     1  LGD1        0.0044
     18  C18        0.6010    2.6040    3.0120 C.ar    1  LGD1       -0.0029
     19  C19        0.3390    3.5290    0.7610 C.ar    1  LGD1       -0.0029
     20  C20       -1.2400    1.9560    1.6370 C.ar    1  LGD1        0.1271
     21  C21       -0.4570    1.7090    2.7450 C.ar    1  LGD1        0.0199
     22  C22       -0.8450    2.7820    0.5840 C.ar    1  LGD1        0.0199
     23  C23       -0.8540   -1.1040    0.5510 C.ar    1  LGD1        0.2125
     24  C24       -1.1750   -2.2000   -0.3310 C.ar    1  LGD1        0.2327
     25  C25       -0.1850   -2.7510   -1.2360 C.ar    1  LGD1        0.2651
     26  C26        1.1720   -1.0790   -0.5680 C.ar    1  LGD1        0.2028
     27  C27       -3.4940   -1.9040   -1.1530 C.ar    1  LGD1        0.1793
     28  C28        2.5770   -0.4000   -0.6350 C.ar    1  LGD1        0.1990
     29  C29       -0.5060   -5.0230   -1.3510 C.3     1  LGD1        0.2426
     30  C30       -3.3220   -1.2950   -2.4140 C.ar    1  LGD1        0.1730
     31  C31       -4.8550   -2.2290   -0.7620 C.ar    1  LGD1        0.0406
     32  C32       -4.4180   -1.0620   -3.2580 C.ar    1  LGD1        0.0401
     33  C33       -0.9950   -6.1940   -2.2700 C.3     1  LGD1        0.2292
     34  C34       -5.9160   -1.6500   -1.4840 C.ar    1  LGD1        0.0033
     35  C35       -5.6950   -1.1630   -2.7440 C.ar    1  LGD1        0.0033
     36  C36        3.8630    1.3500   -1.3730 C.ar    1  LGD1        0.1023
     37  C37        4.7310   -0.3060    0.2120 C.ar    1  LGD1        0.1023
     38  C38        4.8960    0.8630   -0.5380 C.ar    1  LGD1        0.0414
     39  C39       -1.5870    0.1640   -3.1710 C.3     1  LGD1        0.2526
@<TRIPOS>BOND
     1    33     7    1
     2    33    29    1
     3     5    29    1
     4     5    25    1
     5    10    25   ar
     6    10    26   ar
     7    36    11   ar
     8    36    38   ar
     9    11    28   ar
    10    25    24   ar
    11    38    37   ar
    12    34    31   ar
    13    34    35   ar
    14    28    26    1
    15    28    12   ar
    16    26     9   ar
    17    31    27   ar
    18    37    12   ar
    19    24     4    1
    20    24    23   ar
    21     4    27    1
    22    27    30   ar
    23    35    32   ar
    24    15    13    1
    25     9    23   ar
    26    23     8    1
    27    30    32   ar
    28    30     6    1
    29     6    39    1
    30     8     1    1
    31    18    14   ar
    32    18    21   ar
    33    13    14    1
    34    13    17    1
    35    13    16    1
    36    14    19   ar
    37    21    20   ar
    38    20     1    1
    39    20    22   ar
    40    19    22   ar
    41     1     2    2
    42     1     3    2
@<TRIPOS>MOLECULE
178103
 37 41 0 0 0
SMALL
GASTEIGER

@<TRIPOS>ATOM
      1 O          -3.0277    2.3498   -2.5551 O.co2   1  LIG11      -0.5495
      2 O          -0.8124    2.1327   -2.9991 O.co2   1  LIG11      -0.5495
      3 O           0.2193   -4.7021   -0.1514 O.3     1  LIG11      -0.4920
      4 O          -3.4304   -1.4316    0.5502 O.3     1  LIG11      -0.4893
      5 O          -0.2609    1.9379    4.3702 O.3     1  LIG11      -0.4526
      6 O          -0.1835    4.3171    3.9752 O.3     1  LIG11      -0.4526
      7 O          -7.4140   -2.2609   -1.9272 O.3     1  LIG11      -0.4950
      8 O          -2.6186   -1.3839    3.2918 O.3     1  LIG11      -0.3917
      9 C          -1.7482    0.9196   -1.1788 C.3     1  LIG11       0.0203
     10 C          -1.9840   -0.4741   -1.7966 C.3     1  LIG11       0.0218
     11 C          -0.3358    0.9126   -0.5432 C.3     1  LIG11       0.0184
     12 C          -0.9987   -1.3426   -1.0443 C.ar    1  LIG11      -0.0320
     13 C          -0.0671   -0.5652   -0.3522 C.ar    1  LIG11      -0.0353
     14 C          -3.4388   -0.9352   -1.7750 C.ar    1  LIG11       0.0025
     15 C          -0.2915    1.8123    0.6901 C.ar    1  LIG11      -0.0356
     16 C          -1.8676    1.8931   -2.3490 C.2     1  LIG11       0.0466
     17 C          -0.9219   -2.7328   -1.0463 C.ar    1  LIG11      -0.0159
     18 C           0.9850   -1.1740    0.3180 C.ar    1  LIG11      -0.0542
     19 C          -4.1109   -1.4250   -0.6410 C.ar    1  LIG11       0.1278
     20 C           0.1032   -3.3520   -0.3338 C.ar    1  LIG11       0.1208
     21 C          -0.3197    1.3306    2.0094 C.ar    1  LIG11      -0.0124
     22 C           1.0488   -2.5705    0.3482 C.ar    1  LIG11      -0.0196
     23 C          -0.2511    3.2161    0.4795 C.ar    1  LIG11      -0.0543
     24 C          -4.1552   -0.8482   -2.9838 C.ar    1  LIG11      -0.0510
     25 C          -0.2714    2.2436    3.0445 C.ar    1  LIG11       0.1665
     26 C          -0.2218    4.1189    1.5469 C.ar    1  LIG11      -0.0159
     27 C          -5.4463   -1.8429   -0.7477 C.ar    1  LIG11       0.0221
     28 C          -5.4810   -1.2766   -3.0837 C.ar    1  LIG11      -0.0194
     29 C          -0.2241    3.5989    2.8199 C.ar    1  LIG11       0.1662
     30 C          -6.1274   -1.7925   -1.9666 C.ar    1  LIG11       0.1236
     31 C          -0.1059   -5.5390   -1.2617 C.3     1  LIG11       0.0893
     32 C          -0.2039    3.2548    4.9496 C.3     1  LIG11       0.2332
     33 C          -3.7996   -2.4625    1.4729 C.3     1  LIG11       0.1126
     34 C          -0.6156   -6.8771   -0.7284 C.3     1  LIG11      -0.0215
     35 C          -2.6936   -2.5791    2.5163 C.3     1  LIG11       0.0783
     36 C          -8.1034   -2.3199   -3.1696 C.3     1  LIG11       0.0788
     37 C           0.4189   -7.6085    0.1144 C.3     1  LIG11      -0.0622
@<TRIPOS>BOND
     1     1    16   ar
     2     2    16   ar
     3     3    20    1
     4     3    31    1
     5     4    19    1
     6     4    33    1
     7     5    25    1
     8     5    32    1
     9     6    29    1
    10     6    32    1
    11     7    30    1
    12     7    36    1
    13     8    35    1
    14     9    10    1
    15     9    11    1
    16     9    16    1
    17    10    12    1
    18    10    14    1
    19    11    13    1
    20    11    15    1
    21    12    13   ar
    22    12    17   ar
    23    13    18   ar
    24    14    19   ar
    25    14    24   ar
    26    15    21   ar
    27    15    23   ar
    28    17    20   ar
    29    18    22   ar
    30    19    27   ar
    31    20    22   ar
    32    21    25   ar
    33    23    26   ar
    34    24    28   ar
    35    25    29   ar
    36    26    29   ar
    37    27    30   ar
    38    28    30   ar
    39    31    34    1
    40    33    35    1
    41    34    37    1
