@<TRIPOS>MOLECULE
BOSENTAN_50CONFORMERS.pdb
 39 42 0 0 0
SMALL
GASTEIGER

@<TRIPOS>ATOM
      1  S1        -1.2370    0.1620    2.8570 S.O2    1  LGD1        0.0943
      2  O2        -0.4130    1.3820    2.4810 O.2     1  LGD1       -0.1483
      3  O3        -2.4530    0.3900    3.6750 O.2     1  LGD1       -0.1483
      4  O4        -2.3880   -2.7650   -0.1120 O.3     1  LGD1       -0.4427
      5  O5        -0.4890   -3.7900   -2.0520 O.3     1  LGD1       -0.4552
      6  O6        -1.1040   -3.8950    2.1700 O.3     1  LGD1       -0.4684
      7  O7        -0.7000   -5.4660   -4.4110 O.3     1  LGD1       -0.2162
      8  N8        -1.7620   -0.7360    1.5000 N.pl3   1  LGD1       -0.0737
      9  N9         0.3470   -0.5510    0.3410 N.ar    1  LGD1       -0.2027
     10  N10        0.9890   -2.1210   -1.3840 N.ar    1  LGD1       -0.1866
     11  N11        3.2780   -0.3800    0.5340 N.ar    1  LGD1       -0.2224
     12  N12        2.7470    0.2870   -1.8070 N.ar    1  LGD1       -0.2224
     13  C13        2.1080   -3.6810    6.4250 C.3     1  LGD1        0.0189
     14  C14        1.3330   -2.5870    5.6550 C.ar    1  LGD1       -0.0227
     15  C15        3.5950   -3.5340    6.3770 C.3     1  LGD1        0.0044
     16  C16        1.7960   -4.9780    5.7160 C.3     1  LGD1        0.0044
     17  C17        1.7710   -3.9110    7.8870 C.3     1  LGD1        0.0044
     18  C18        1.9210   -1.6830    4.7520 C.ar    1  LGD1       -0.0029
     19  C19       -0.0800   -2.6910    5.6780 C.ar    1  LGD1       -0.0029
     20  C20       -0.2550   -0.9230    3.9280 C.ar    1  LGD1        0.1271
     21  C21        1.1720   -0.8700    3.9210 C.ar    1  LGD1        0.0199
     22  C22       -0.8600   -1.8310    4.8160 C.ar    1  LGD1        0.0199
     23  C23       -0.8840   -1.1100    0.4780 C.ar    1  LGD1        0.2125
     24  C24       -1.1770   -2.1770   -0.3220 C.ar    1  LGD1        0.2327
     25  C25       -0.2380   -2.6790   -1.2270 C.ar    1  LGD1        0.2651
     26  C26        1.1970   -1.1130   -0.5260 C.ar    1  LGD1        0.2028
     27  C27       -2.5230   -4.0940    0.2060 C.ar    1  LGD1        0.1793
     28  C28        2.5370   -0.3470   -0.5690 C.ar    1  LGD1        0.1990
     29  C29       -1.3770   -3.5150   -3.1800 C.3     1  LGD1        0.2426
     30  C30       -1.8710   -4.6400    1.2460 C.ar    1  LGD1        0.1730
     31  C31       -3.4000   -4.9600   -0.5370 C.ar    1  LGD1        0.0406
     32  C32       -2.0650   -5.9920    1.6420 C.ar    1  LGD1        0.0401
     33  C33       -1.8600   -4.8150   -3.8350 C.3     1  LGD1        0.2292
     34  C34       -3.5370   -6.3420   -0.2630 C.ar    1  LGD1        0.0033
     35  C35       -2.8310   -6.8840    0.8430 C.ar    1  LGD1        0.0033
     36  C36        4.3580    0.4000    0.4620 C.ar    1  LGD1        0.1023
     37  C37        3.8670    1.0790   -1.8320 C.ar    1  LGD1        0.1023
     38  C38        4.6930    1.1800   -0.6750 C.ar    1  LGD1        0.0414
     39  C39        0.3750   -4.0230    2.0230 C.3     1  LGD1        0.2526
@<TRIPOS>BOND
     1    33     7    1
     2    33    29    1
     3     5    29    1
     4     5    25    1
     5    10    25   ar
     6    10    26   ar
     7    36    11   ar
     8    36    38   ar
     9    11    28   ar
    10    25    24   ar
    11    38    37   ar
    12    34    31   ar
    13    34    35   ar
    14    28    26    1
    15    28    12   ar
    16    26     9   ar
    17    31    27   ar
    18    37    12   ar
    19    24     4    1
    20    24    23   ar
    21     4    27    1
    22    27    30   ar
    23    35    32   ar
    24    15    13    1
    25     9    23   ar
    26    23     8    1
    27    30    32   ar
    28    30     6    1
    29     6    39    1
    30     8     1    1
    31    18    14   ar
    32    18    21   ar
    33    13    14    1
    34    13    17    1
    35    13    16    1
    36    14    19   ar
    37    21    20   ar
    38    20     1    1
    39    20    22   ar
    40    19    22   ar
    41     1     2    2
    42     1     3    2
@<TRIPOS>MOLECULE
HTS1204-03362316-01
 44 47 0 0 0
SMALL
USER_CHARGES

@<TRIPOS>ATOM
      1 C1          0.6772   -3.0538    6.2651 C.ar    1  UNK11      -0.0199
      2 N1         -0.7500   -1.3380    6.3716 N.ar    1  UNK11      -0.3494
      3 C2         -3.4272   -9.2089    5.2529 C.2     1  UNK11       0.3028
      4 C3         -0.3932   -2.5196    6.9598 C.ar    1  UNK11       0.0086
      5 C4          1.6364   -5.3933    4.2792 C.2     1  UNK11       0.2342
      6 C5          1.0050   -2.1091    5.2352 C.ar    1  UNK11       0.0031
      7 C6         -1.1492   -6.9008    5.5665 C.2     1  UNK11       0.2340
      8 C7          0.0724   -1.0684    5.3012 C.ar    1  UNK11       0.0491
      9 N2         -3.0689   -8.0949    4.5371 N.am    1  UNK11      -0.2879
     10 N3         -3.7637  -10.3025    4.4584 N.am    1  UNK11      -0.2856
     11 N4         -0.5069   -5.6791    5.5458 N.am    1  UNK11      -0.3022
     12 N5          0.7563   -5.4145    3.2119 N.am    1  UNK11      -0.3054
     13 C8          0.9548   -5.5477    5.6588 C.3     1  UNK11       0.1034
     14 C9         -2.6426   -6.8314    5.1532 C.3     1  UNK11       0.1011
     15 C10         1.2437   -5.3137    1.8177 C.3     1  UNK11       0.0680
     16 C11         1.3559   -4.3676    6.5712 C.3     1  UNK11       0.0013
     17 C12         1.6226   -6.6723    1.1609 C.2     1  UNK11       0.0623
     18 C13         0.2449   -4.5631    0.9188 C.3     1  UNK11       0.0133
     19 O1         -3.4778   -9.2506    6.4782 O.2     1  UNK11      -0.2526
     20 O2         -0.5756   -7.9413    5.8720 O.2     1  UNK11      -0.2738
     21 O3          2.8490   -5.2107    4.1739 O.2     1  UNK11      -0.2738
     22 N6         -1.9434   -4.2662   -0.0847 N.ar    1  UNK11      -0.2598
     23 O4          1.2274   -7.6952    1.8015 O.co2   1  UNK11      -0.5479
     24 C14        -3.5693   -6.3469    6.2834 C.3     1  UNK11      -0.0236
     25 C15        -1.1445   -5.1023    0.6383 C.ar    1  UNK11       0.0434
     26 O5          2.2234   -6.5993    0.0533 O.co2   1  UNK11      -0.5479
     27 C16        -1.8284   -0.4860    6.8181 C.3     1  UNK11       0.0119
     28 C17        -3.8804  -11.5957    5.1321 C.3     1  UNK11       0.0161
     29 C18        -4.1214  -10.2141    3.0442 C.3     1  UNK11       0.0161
     30 C19         0.0775    0.0032    4.3917 C.ar    1  UNK11      -0.0376
     31 C20         2.0026   -2.0419    4.2398 C.ar    1  UNK11      -0.0523
     32 C21        -3.4543   -4.8589    6.6726 C.3     1  UNK11      -0.0446
     33 C22        -3.1737   -4.6997   -0.4359 C.ar    1  UNK11       0.0279
     34 C23        -1.6045   -6.3539    1.0361 C.ar    1  UNK11      -0.0403
     35 C24        -4.3899   -4.5592    7.8488 C.3     1  UNK11      -0.0626
     36 C25        -3.7709   -3.9106    5.5161 C.3     1  UNK11      -0.0626
     37 C26        -4.1116  -12.8090    4.2284 C.3     1  UNK11      -0.0371
     38 C27        -3.0392  -10.7624    2.1182 C.3     1  UNK11      -0.0371
     39 C28         2.0126   -0.9857    3.3232 C.ar    1  UNK11      -0.0611
     40 C29         1.0573    0.0199    3.3961 C.ar    1  UNK11      -0.0598
     41 C30        -3.6882   -5.9313   -0.0823 C.ar    1  UNK11      -0.0436
     42 C31        -2.8865   -6.7681    0.6736 C.ar    1  UNK11      -0.0586
     43 C32        -3.0044  -13.1063    3.2131 C.3     1  UNK11      -0.0516
     44 C33        -2.2110  -11.9148    2.6824 C.3     1  UNK11      -0.0516
@<TRIPOS>BOND
     1     2     4   ar
     2     3     9   am
     3     1     4   ar
     4     5    13    1
     5     1     6   ar
     6     7    11   am
     7     6     8   ar
     8     9    14    1
     9     3    10   am
    10    11    13    1
    11     5    12   am
    12    13    16    1
    13     7    14    1
    14    12    15    1
    15     1    16    1
    16    15    17    1
    17    15    18    1
    18     3    19    2
    19     7    20    2
    20     5    21    2
    21    22    25   ar
    22    17    23   ar
    23    14    24    1
    24    18    25    1
    25    17    26   ar
    26     2    27    1
    27    10    28    1
    28    10    29    1
    29     8    30   ar
    30     6    31   ar
    31    24    32    1
    32    22    33   ar
    33    25    34   ar
    34    32    35    1
    35    32    36    1
    36    28    37    1
    37    29    38    1
    38    31    39   ar
    39    39    40   ar
    40    41    42   ar
    41    34    42   ar
    42    37    43    1
    43    38    44    1
    44     2     8   ar
    45    30    40   ar
    46    33    41   ar
    47    43    44    1
