@<TRIPOS>MOLECULE
BOSENTAN_50CONFORMERS.pdb
 39 42 0 0 0
SMALL
GASTEIGER

@<TRIPOS>ATOM
      1  S1        -1.8260    0.8680    2.1150 S.O2    1  LGD1        0.0943
      2  O2        -3.2310    1.0510    2.6420 O.2     1  LGD1       -0.1483
      3  O3        -0.7360    0.8420    3.1650 O.2     1  LGD1       -0.1483
      4  O4        -2.4030   -2.7480   -0.1730 O.3     1  LGD1       -0.4427
      5  O5        -0.5250   -3.7950   -2.0950 O.3     1  LGD1       -0.4552
      6  O6        -2.8550   -0.2480   -1.8440 O.3     1  LGD1       -0.4684
      7  O7        -1.9730   -4.8030   -4.4000 O.3     1  LGD1       -0.2162
      8  N8        -1.8030   -0.6630    1.3420 N.pl3   1  LGD1       -0.0737
      9  N9         0.3910   -0.5170    0.4490 N.ar    1  LGD1       -0.2027
     10  N10        0.9160   -2.0940   -1.3960 N.ar    1  LGD1       -0.1866
     11  N11        2.6710    0.8150   -0.9050 N.ar    1  LGD1       -0.2224
     12  N12        3.5280   -1.4300   -0.5030 N.ar    1  LGD1       -0.2224
     13  C13       -0.5230    4.4800   -2.6490 C.3     1  LGD1        0.0189
     14  C14       -0.8270    3.6580   -1.3880 C.ar    1  LGD1       -0.0227
     15  C15       -1.6210    5.5800   -2.8100 C.3     1  LGD1        0.0044
     16  C16       -0.4680    3.6970   -4.0130 C.3     1  LGD1        0.0044
     17  C17        0.8300    5.1600   -2.6730 C.3     1  LGD1        0.0044
     18  C18        0.1540    3.3630   -0.3720 C.ar    1  LGD1       -0.0029
     19  C19       -2.1270    3.0610   -1.2730 C.ar    1  LGD1       -0.0029
     20  C20       -1.4510    1.9720    0.8310 C.ar    1  LGD1        0.1271
     21  C21       -0.1290    2.4730    0.7040 C.ar    1  LGD1        0.0199
     22  C22       -2.4280    2.2780   -0.1370 C.ar    1  LGD1        0.0199
     23  C23       -0.8140   -1.1840    0.5480 C.ar    1  LGD1        0.2125
     24  C24       -1.1190   -2.2490   -0.2350 C.ar    1  LGD1        0.2327
     25  C25       -0.2610   -2.7270   -1.2750 C.ar    1  LGD1        0.2651
     26  C26        1.1980   -1.0480   -0.5300 C.ar    1  LGD1        0.2028
     27  C27       -3.3080   -2.6450   -1.2120 C.ar    1  LGD1        0.1793
     28  C28        2.5710   -0.4720   -0.5450 C.ar    1  LGD1        0.1990
     29  C29       -0.0310   -3.6890   -3.4570 C.3     1  LGD1        0.2426
     30  C30       -3.5470   -1.4580   -2.0260 C.ar    1  LGD1        0.1730
     31  C31       -4.0820   -3.7780   -1.4710 C.ar    1  LGD1        0.0406
     32  C32       -4.5460   -1.5120   -2.9680 C.ar    1  LGD1        0.0401
     33  C33       -0.5230   -4.8470   -4.3420 C.3     1  LGD1        0.2292
     34  C34       -5.0600   -3.7560   -2.4690 C.ar    1  LGD1        0.0033
     35  C35       -5.2410   -2.6820   -3.2890 C.ar    1  LGD1        0.0033
     36  C36        3.9260    1.3540   -0.9780 C.ar    1  LGD1        0.1023
     37  C37        4.8260   -0.9910   -0.5450 C.ar    1  LGD1        0.1023
     38  C38        4.9700    0.4280   -0.7720 C.ar    1  LGD1        0.0414
     39  C39       -1.9900   -0.1040   -3.0090 C.3     1  LGD1        0.2526
@<TRIPOS>BOND
     1    33     7    1
     2    33    29    1
     3     5    29    1
     4     5    25    1
     5    10    25   ar
     6    10    26   ar
     7    36    11   ar
     8    36    38   ar
     9    11    28   ar
    10    25    24   ar
    11    38    37   ar
    12    34    31   ar
    13    34    35   ar
    14    28    26    1
    15    28    12   ar
    16    26     9   ar
    17    31    27   ar
    18    37    12   ar
    19    24     4    1
    20    24    23   ar
    21     4    27    1
    22    27    30   ar
    23    35    32   ar
    24    15    13    1
    25     9    23   ar
    26    23     8    1
    27    30    32   ar
    28    30     6    1
    29     6    39    1
    30     8     1    1
    31    18    14   ar
    32    18    21   ar
    33    13    14    1
    34    13    17    1
    35    13    16    1
    36    14    19   ar
    37    21    20   ar
    38    20     1    1
    39    20    22   ar
    40    19    22   ar
    41     1     2    2
    42     1     3    2
@<TRIPOS>MOLECULE
2-[[2-[2-butyl-4-[(Z)-2-carboxy-3-(6-methoxy-1,3-benzodioxol-5-yl)prop-1-enyl]pyrazol-3-yl]-5-methoxyphenoxy]methyl]benzoic acid
 45 49 0 0 0
SMALL
GASTEIGER

@<TRIPOS>ATOM
      1 O          -2.6694    0.3605   -0.7720 O.3     1  LIG11      -0.4866
      2 O          -3.0023    7.5469    4.7061 O.3     1  LIG11      -0.4526
      3 O          -4.2342    9.6175    4.8074 O.3     1  LIG11      -0.4525
      4 O          -6.7470    8.4969    0.8186 O.3     1  LIG11      -0.4947
      5 O           1.3347    0.5007    1.8400 O.3     1  LIG11      -0.4950
      6 O          -5.5294    3.5359    3.2182 O.co2   1  LIG11      -0.5449
      7 O          -7.4030    4.4086    2.2347 O.co2   1  LIG11      -0.5449
      8 O          -2.2991   -3.4251    0.8419 O.co2   1  LIG11      -0.5446
      9 O          -3.7287   -5.1361    0.5052 O.co2   1  LIG11      -0.5446
     10 N          -2.3792    3.8443   -2.3085 N.ar    1  LIG11      -0.2630
     11 N          -3.4774    4.3404   -2.9234 N.ar    1  LIG11      -0.1785
     12 C          -2.6555    3.2325   -1.0905 C.ar    1  LIG11       0.0795
     13 C          -1.0593    4.1556   -2.8444 C.3     1  LIG11       0.0422
     14 C          -1.0262    5.1105   -4.0513 C.3     1  LIG11      -0.0336
     15 C          -3.9388    3.6679   -0.7909 C.ar    1  LIG11       0.0207
     16 C          -1.6627    2.4941   -0.2918 C.ar    1  LIG11       0.0425
     17 C           0.2703    5.9209   -4.1606 C.3     1  LIG11      -0.0542
     18 C          -4.4151    4.2588   -1.9790 C.ar    1  LIG11       0.0571
     19 C          -4.6503    3.5311    0.4395 C.2     1  LIG11      -0.0459
     20 C          -5.4723    5.9604    0.6721 C.3     1  LIG11       0.0029
     21 C          -1.6821    1.0893   -0.1300 C.ar    1  LIG11       0.1336
     22 C          -5.3545    4.5048    1.0584 C.2     1  LIG11      -0.0200
     23 C          -5.1606    6.9763    1.7680 C.ar    1  LIG11       0.0023
     24 C          -0.6399    3.2359    0.3319 C.ar    1  LIG11      -0.0456
     25 C           1.5303    5.0769   -4.2340 C.3     1  LIG11      -0.0652
     26 C          -0.6654    0.4885    0.6372 C.ar    1  LIG11       0.0224
     27 C          -5.8525    8.2150    1.8237 C.ar    1  LIG11       0.1273
     28 C          -4.1571    6.7140    2.7234 C.ar    1  LIG11      -0.0092
     29 C           0.3921    2.6113    1.0369 C.ar    1  LIG11      -0.0191
     30 C          -3.9199    7.6511    3.7063 C.ar    1  LIG11       0.1667
     31 C           0.3881    1.2311    1.1749 C.ar    1  LIG11       0.1236
     32 C          -4.6174    8.8337    3.7610 C.ar    1  LIG11       0.1697
     33 C          -5.5757    9.1555    2.8265 C.ar    1  LIG11       0.0258
     34 C          -6.1764    4.0977    2.2929 C.2     1  LIG11       0.0680
     35 C          -2.7547   -1.0385   -0.4024 C.3     1  LIG11       0.1153
     36 C          -3.2830    8.7440    5.4510 C.3     1  LIG11       0.2332
     37 C          -3.6450   -1.8954   -1.2926 C.ar    1  LIG11      -0.0016
     38 C          -3.8462   -3.2757   -0.9974 C.ar    1  LIG11       0.0037
     39 C          -4.2069   -1.3571   -2.4651 C.ar    1  LIG11      -0.0547
     40 C          -7.9917    8.9980    1.2987 C.3     1  LIG11       0.0788
     41 C          -4.6131   -4.0482   -1.8964 C.ar    1  LIG11      -0.0525
     42 C          -4.9468   -2.1539   -3.3417 C.ar    1  LIG11      -0.0614
     43 C           2.6437    1.0504    1.8521 C.3     1  LIG11       0.0788
     44 C          -5.1497   -3.4991   -3.0589 C.ar    1  LIG11      -0.0611
     45 C          -3.2530   -3.9889    0.2190 C.2     1  LIG11       0.0720
@<TRIPOS>BOND
     1     1    35    1
     2     1    21    1
     3     2    36    1
     4     2    30    1
     5     3    32    1
     6     3    36    1
     7     4    27    1
     8     4    40    1
     9     5    31    1
    10     5    43    1
    11     6    34   ar
    12     7    34   ar
    13     8    45   ar
    14     9    45   ar
    15    10    11   ar
    16    10    12   ar
    17    10    13    1
    18    11    18   ar
    19    12    15   ar
    20    13    14    1
    21    14    17    1
    22    15    18   ar
    23    15    19    1
    24    16    24   ar
    25    16    21   ar
    26    16    12    1
    27    17    25    1
    28    19    22    2
    29    20    22    1
    30    20    23    1
    31    21    26   ar
    32    22    34    1
    33    23    28   ar
    34    23    27   ar
    35    24    29   ar
    36    26    31   ar
    37    27    33   ar
    38    28    30   ar
    39    29    31   ar
    40    30    32   ar
    41    32    33   ar
    42    35    37    1
    43    37    39   ar
    44    37    38   ar
    45    38    41   ar
    46    38    45    1
    47    39    42   ar
    48    41    44   ar
    49    42    44   ar
