@<TRIPOS>MOLECULE
BOSENTAN_50CONFORMERS.pdb
 39 42 0 0 0
SMALL
GASTEIGER

@<TRIPOS>ATOM
      1  S1        -2.0470    0.8590    2.0430 S.O2    1  LGD1        0.0943
      2  O2        -2.0970    1.7730    0.9110 O.2     1  LGD1       -0.1483
      3  O3        -3.2890    0.6710    2.8910 O.2     1  LGD1       -0.1483
      4  O4        -2.4330   -2.9560    0.0200 O.3     1  LGD1       -0.4427
      5  O5        -0.5250   -3.8100   -2.0390 O.3     1  LGD1       -0.4552
      6  O6        -4.2950   -1.7230   -1.8710 O.3     1  LGD1       -0.4684
      7  O7         0.7620   -6.4920   -3.6860 O.3     1  LGD1       -0.2162
      8  N8        -1.8040   -0.7150    1.4170 N.pl3   1  LGD1       -0.0737
      9  N9         0.4070   -0.6250    0.4290 N.ar    1  LGD1       -0.2027
     10  N10        0.9580   -2.0580   -1.4180 N.ar    1  LGD1       -0.1866
     11  N11        3.7570   -1.1910   -0.3510 N.ar    1  LGD1       -0.2224
     12  N12        2.5940    0.9630   -0.5980 N.ar    1  LGD1       -0.2224
     13  C13        2.9610    1.1380    5.6170 C.3     1  LGD1        0.0189
     14  C14        1.7960    1.0700    4.6730 C.ar    1  LGD1       -0.0227
     15  C15        2.8720    0.4370    6.9740 C.3     1  LGD1        0.0044
     16  C16        3.2980    2.5920    6.0650 C.3     1  LGD1        0.0044
     17  C17        4.2910    0.6470    4.9390 C.3     1  LGD1        0.0044
     18  C18        1.6840    1.8520    3.5060 C.ar    1  LGD1       -0.0029
     19  C19        0.6570    0.2500    4.9760 C.ar    1  LGD1       -0.0029
     20  C20       -0.5300    1.0100    2.9940 C.ar    1  LGD1        0.1271
     21  C21        0.5320    1.8230    2.6500 C.ar    1  LGD1        0.0199
     22  C22       -0.5110    0.2620    4.1770 C.ar    1  LGD1        0.0199
     23  C23       -0.8650   -1.0940    0.4730 C.ar    1  LGD1        0.2125
     24  C24       -1.1960   -2.2370   -0.2740 C.ar    1  LGD1        0.2327
     25  C25       -0.2450   -2.7110   -1.2380 C.ar    1  LGD1        0.2651
     26  C26        1.2520   -1.0260   -0.5420 C.ar    1  LGD1        0.2028
     27  C27       -3.1730   -3.6850   -0.8680 C.ar    1  LGD1        0.1793
     28  C28        2.6760   -0.3780   -0.4560 C.ar    1  LGD1        0.1990
     29  C29        0.2530   -4.0320   -3.2550 C.3     1  LGD1        0.2426
     30  C30       -4.1240   -3.1060   -1.7300 C.ar    1  LGD1        0.1730
     31  C31       -3.1660   -5.0880   -0.6920 C.ar    1  LGD1        0.0406
     32  C32       -4.9460   -3.9420   -2.5340 C.ar    1  LGD1        0.0401
     33  C33       -0.1310   -5.3620   -4.0100 C.3     1  LGD1        0.2292
     34  C34       -4.0270   -5.9160   -1.4150 C.ar    1  LGD1        0.0033
     35  C35       -4.8640   -5.3150   -2.3740 C.ar    1  LGD1        0.0033
     36  C36        4.9190   -0.5590   -0.3020 C.ar    1  LGD1        0.1023
     37  C37        3.7670    1.5640   -0.4470 C.ar    1  LGD1        0.1023
     38  C38        4.8810    0.8140   -0.2050 C.ar    1  LGD1        0.0414
     39  C39       -4.7540   -1.0490   -0.6560 C.3     1  LGD1        0.2526
@<TRIPOS>BOND
     1    33     7    1
     2    33    29    1
     3     5    29    1
     4     5    25    1
     5    10    25   ar
     6    10    26   ar
     7    36    11   ar
     8    36    38   ar
     9    11    28   ar
    10    25    24   ar
    11    38    37   ar
    12    34    31   ar
    13    34    35   ar
    14    28    26    1
    15    28    12   ar
    16    26     9   ar
    17    31    27   ar
    18    37    12   ar
    19    24     4    1
    20    24    23   ar
    21     4    27    1
    22    27    30   ar
    23    35    32   ar
    24    15    13    1
    25     9    23   ar
    26    23     8    1
    27    30    32   ar
    28    30     6    1
    29     6    39    1
    30     8     1    1
    31    18    14   ar
    32    18    21   ar
    33    13    14    1
    34    13    17    1
    35    13    16    1
    36    14    19   ar
    37    21    20   ar
    38    20     1    1
    39    20    22   ar
    40    19    22   ar
    41     1     2    2
    42     1     3    2
@<TRIPOS>MOLECULE
9957262
 35 38 0 0 0
SMALL
GASTEIGER

@<TRIPOS>ATOM
      1 S          -0.0266   -4.0994    3.0705 S.O2    1  LIG11       0.0668
      2 O          -1.9840   -3.8162    0.1798 O.3     1  LIG11      -0.4435
      3 O          -2.1501   -1.2918   -1.1612 O.3     1  LIG11      -0.4771
      4 O           0.6675   -5.0937    3.8631 O.2     1  LIG11      -0.1505
      5 O          -1.4777   -4.1076    3.0575 O.2     1  LIG11      -0.1505
      6 O          -0.9940   -4.5661   -2.3348 O.3     1  LIG11      -0.4914
      7 N           0.4510   -4.3804    1.4648 N.pl3   1  LIG11      -0.1968
      8 N           1.3794   -2.5069    0.5147 N.ar    1  LIG11      -0.2044
      9 N           0.1395   -0.9641   -0.7984 N.ar    1  LIG11      -0.1867
     10 N           3.7144   -1.1311   -0.0849 N.ar    1  LIG11      -0.2331
     11 N           2.4153    0.6283   -1.0411 N.ar    1  LIG11      -0.2331
     12 C           0.2733   -3.2601    0.5995 C.ar    1  LIG11       0.1883
     13 C          -0.9353   -2.9568    0.0096 C.ar    1  LIG11       0.2307
     14 C          -0.9486   -1.7477   -0.6551 C.ar    1  LIG11       0.2639
     15 C          -2.8081   -4.0691   -0.8958 C.ar    1  LIG11       0.1702
     16 C           0.5537   -2.5285    3.5350 C.2     1  LIG11       0.0729
     17 C           1.2882   -1.3865   -0.2279 C.ar    1  LIG11       0.2027
     18 C          -2.3487   -4.4350   -2.1733 C.ar    1  LIG11       0.1621
     19 C          -0.3176   -1.5130    3.6554 C.2     1  LIG11      -0.0353
     20 C           0.0245   -0.1257    4.0006 C.ar    1  LIG11      -0.0237
     21 C          -4.1784   -3.9986   -0.6239 C.ar    1  LIG11      -0.0157
     22 C           2.5283   -0.5858   -0.4507 C.ar    1  LIG11       0.1978
     23 C          -3.2900   -4.6774   -3.1798 C.ar    1  LIG11      -0.0163
     24 C          -5.1040   -4.2426   -1.6346 C.ar    1  LIG11      -0.0581
     25 C          -4.6597   -4.5744   -2.9121 C.ar    1  LIG11      -0.0581
     26 C           1.2840    0.4350    3.7557 C.ar    1  LIG11      -0.0546
     27 C          -0.9812    0.6932    4.5368 C.ar    1  LIG11      -0.0546
     28 C           1.5369    1.7761    4.0614 C.ar    1  LIG11      -0.0612
     29 C          -0.7292    2.0335    4.8396 C.ar    1  LIG11      -0.0612
     30 C           0.5316    2.5740    4.6040 C.ar    1  LIG11      -0.0617
     31 C          -2.0455   -0.0659   -1.8767 C.3     1  LIG11       0.0805
     32 C          -0.5065   -4.6287   -3.6699 C.3     1  LIG11       0.0790
     33 C           4.8226   -0.4151   -0.3470 C.ar    1  LIG11       0.0315
     34 C           3.5574    1.3031   -1.2673 C.ar    1  LIG11       0.0315
     35 C           4.8025    0.8217   -0.9431 C.ar    1  LIG11      -0.0254
@<TRIPOS>BOND
     1     1     4    2
     2     1     5    2
     3     1     7    1
     4     1    16    1
     5     2    13    1
     6     2    15    1
     7     3    14    1
     8     3    31    1
     9     6    18    1
    10     6    32    1
    11     7    12    1
    12     8    12   ar
    13     8    17   ar
    14     9    14   ar
    15     9    17   ar
    16    10    22   ar
    17    10    33   ar
    18    11    22   ar
    19    11    34   ar
    20    12    13   ar
    21    13    14   ar
    22    15    18   ar
    23    15    21   ar
    24    16    19    2
    25    17    22    1
    26    18    23   ar
    27    19    20    1
    28    20    26   ar
    29    20    27   ar
    30    21    24   ar
    31    23    25   ar
    32    24    25   ar
    33    26    28   ar
    34    27    29   ar
    35    28    30   ar
    36    29    30   ar
    37    33    35   ar
    38    34    35   ar
