@<TRIPOS>MOLECULE
BOSENTAN_50CONFORMERS.pdb
 39 42 0 0 0
SMALL
GASTEIGER

@<TRIPOS>ATOM
      1  S1        -2.2130   -0.9610    2.7860 S.O2    1  LGD1        0.0943
      2  O2        -1.2310   -1.8870    3.3660 O.2     1  LGD1       -0.1483
      3  O3        -2.3150    0.3660    3.4370 O.2     1  LGD1       -0.1483
      4  O4        -2.4510   -2.9280   -0.0960 O.3     1  LGD1       -0.4427
      5  O5        -0.5660   -3.7200   -2.0470 O.3     1  LGD1       -0.4552
      6  O6        -0.6560   -4.8360    1.1410 O.3     1  LGD1       -0.4684
      7  O7        -1.0530   -6.3730   -2.7650 O.3     1  LGD1       -0.2162
      8  N8        -1.7870   -0.6080    1.2480 N.pl3   1  LGD1       -0.0737
      9  N9         0.3610   -0.5810    0.4590 N.ar    1  LGD1       -0.2027
     10  N10        0.9730   -2.0690   -1.4600 N.ar    1  LGD1       -0.1866
     11  N11        3.5900   -1.1320   -1.2680 N.ar    1  LGD1       -0.2224
     12  N12        2.5820    0.8690   -0.0850 N.ar    1  LGD1       -0.2224
     13  C13       -7.3260   -3.9710    1.5890 C.3     1  LGD1        0.0189
     14  C14       -6.0780   -3.1800    1.8900 C.ar    1  LGD1       -0.0227
     15  C15       -7.6350   -3.9770    0.1120 C.3     1  LGD1        0.0044
     16  C16       -8.5540   -3.4160    2.3330 C.3     1  LGD1        0.0044
     17  C17       -7.2090   -5.4830    1.9100 C.3     1  LGD1        0.0044
     18  C18       -5.9650   -1.8470    1.5700 C.ar    1  LGD1       -0.0029
     19  C19       -5.0280   -3.7830    2.6350 C.ar    1  LGD1       -0.0029
     20  C20       -3.7990   -1.7080    2.5850 C.ar    1  LGD1        0.1271
     21  C21       -4.8750   -1.0430    2.0160 C.ar    1  LGD1        0.0199
     22  C22       -3.9180   -3.0410    3.0260 C.ar    1  LGD1        0.0199
     23  C23       -0.8110   -1.2550    0.5910 C.ar    1  LGD1        0.2125
     24  C24       -1.1400   -2.3210   -0.2160 C.ar    1  LGD1        0.2327
     25  C25       -0.2180   -2.6770   -1.2160 C.ar    1  LGD1        0.2651
     26  C26        1.1700   -1.0450   -0.5500 C.ar    1  LGD1        0.2028
     27  C27       -2.7100   -4.3130   -0.0590 C.ar    1  LGD1        0.1793
     28  C28        2.6010   -0.3900   -0.5990 C.ar    1  LGD1        0.1990
     29  C29        0.4460   -4.8130   -1.9160 C.3     1  LGD1        0.2426
     30  C30       -1.9410   -5.1940    0.6780 C.ar    1  LGD1        0.1730
     31  C31       -3.9190   -4.7220   -0.5350 C.ar    1  LGD1        0.0406
     32  C32       -2.2500   -6.5580    0.7410 C.ar    1  LGD1        0.0401
     33  C33        0.2050   -5.7470   -3.0780 C.3     1  LGD1        0.2292
     34  C34       -4.1890   -6.1270   -0.6620 C.ar    1  LGD1        0.0033
     35  C35       -3.3490   -6.9720    0.0120 C.ar    1  LGD1        0.0033
     36  C36        4.8260   -0.5880   -1.3240 C.ar    1  LGD1        0.1023
     37  C37        3.8140    1.4510   -0.2760 C.ar    1  LGD1        0.1023
     38  C38        4.8740    0.7260   -0.7820 C.ar    1  LGD1        0.0414
     39  C39       -0.1790   -5.1290    2.4860 C.3     1  LGD1        0.2526
@<TRIPOS>BOND
     1    33     7    1
     2    33    29    1
     3     5    29    1
     4     5    25    1
     5    10    25   ar
     6    10    26   ar
     7    36    11   ar
     8    36    38   ar
     9    11    28   ar
    10    25    24   ar
    11    38    37   ar
    12    34    31   ar
    13    34    35   ar
    14    28    26    1
    15    28    12   ar
    16    26     9   ar
    17    31    27   ar
    18    37    12   ar
    19    24     4    1
    20    24    23   ar
    21     4    27    1
    22    27    30   ar
    23    35    32   ar
    24    15    13    1
    25     9    23   ar
    26    23     8    1
    27    30    32   ar
    28    30     6    1
    29     6    39    1
    30     8     1    1
    31    18    14   ar
    32    18    21   ar
    33    13    14    1
    34    13    17    1
    35    13    16    1
    36    14    19   ar
    37    21    20   ar
    38    20     1    1
    39    20    22   ar
    40    19    22   ar
    41     1     2    2
    42     1     3    2
@<TRIPOS>MOLECULE
*****
 27 29 0 0 0
SMALL
GASTEIGER

@<TRIPOS>ATOM
      1 C          -4.3908   -2.3975    3.4856 C.ar    1  LIG11      -0.0615
      2 C          -4.8198   -1.1001    3.2282 C.ar    1  LIG11      -0.0617
      3 C          -5.6276   -0.8478    2.1235 C.ar    1  LIG11      -0.0615
      4 C          -5.9923   -1.8904    1.2650 C.ar    1  LIG11      -0.0576
      5 C          -5.5482   -3.2060    1.4864 C.ar    1  LIG11      -0.0332
      6 C          -4.7586   -3.4392    2.6307 C.ar    1  LIG11      -0.0576
      7 C          -4.7049   -6.6927    0.3845 C.ar    1  LIG11      -0.0576
      8 C          -3.5710   -7.4628    0.0986 C.ar    1  LIG11      -0.0615
      9 C          -2.3941   -6.8551   -0.3247 C.ar    1  LIG11      -0.0617
     10 C          -2.3483   -5.4734   -0.4609 C.ar    1  LIG11      -0.0615
     11 C          -3.4794   -4.7062   -0.1671 C.ar    1  LIG11      -0.0576
     12 N          -9.3859   -7.0116   -1.0223 N.ar    1  LIG11      -0.2002
     13 C          -9.0136   -6.0142   -0.2036 C.ar    1  LIG11       0.3190
     14 N          -9.7725   -4.9488    0.0941 N.ar    1  LIG11      -0.2002
     15 C         -11.0175   -4.9237   -0.4127 C.ar    1  LIG11       0.0453
     16 C         -11.4957   -5.9139   -1.2457 C.ar    1  LIG11      -0.0193
     17 C         -10.6321   -6.9527   -1.5282 C.ar    1  LIG11       0.0453
     18 C         -11.0307   -8.0654   -2.4457 C.3     1  LIG11      -0.0221
     19 C         -11.8770   -3.7526   -0.0477 C.3     1  LIG11      -0.0221
     20 O          -7.7049   -6.0781    0.2033 O.3     1  LIG11      -0.4519
     21 C          -7.2426   -5.0513    1.1228 C.3     1  LIG11       0.1554
     22 C          -5.9303   -4.3944    0.5534 C.3     1  LIG11       0.0601
     23 C          -7.2284   -5.6264    2.5665 C.2     1  LIG11       0.0833
     24 O          -6.6940   -6.7603    2.7367 O.co2   1  LIG11      -0.5460
     25 O          -7.7955   -4.9032    3.4426 O.co2   1  LIG11      -0.5460
     26 C          -4.6884   -5.2970    0.2706 C.ar    1  LIG11      -0.0332
     27 C          -6.3120   -3.8721   -0.8774 C.3     1  LIG11      -0.0477
@<TRIPOS>BOND
     1     1     2   ar
     2     2     3   ar
     3     3     4   ar
     4     4     5   ar
     5     5     6   ar
     6     5    22    1
     7     6     1   ar
     8     7     8   ar
     9     8     9   ar
    10     9    10   ar
    11    10    11   ar
    12    11    26   ar
    13    12    13   ar
    14    13    14   ar
    15    14    15   ar
    16    15    16   ar
    17    15    19    1
    18    16    17   ar
    19    17    12   ar
    20    17    18    1
    21    20    21    1
    22    20    13    1
    23    21    23    1
    24    21    22    1
    25    22    27    1
    26    22    26    1
    27    23    25   ar
    28    23    24   ar
    29    26     7   ar
