@<TRIPOS>MOLECULE
BOSENTAN_50CONFORMERS.pdb
 39 42 0 0 0
SMALL
GASTEIGER

@<TRIPOS>ATOM
      1  S1        -1.6290   -0.5410    3.0410 S.O2    1  LGD1        0.0943
      2  O2        -0.4420    0.3510    3.2000 O.2     1  LGD1       -0.1483
      3  O3        -3.0160   -0.2070    3.4680 O.2     1  LGD1       -0.1483
      4  O4        -2.4470   -2.7230   -0.2210 O.3     1  LGD1       -0.4427
      5  O5        -0.5380   -3.7880   -2.1140 O.3     1  LGD1       -0.4552
      6  O6        -0.9620   -4.7480    1.1500 O.3     1  LGD1       -0.4684
      7  O7        -2.8990   -4.3780   -3.8350 O.3     1  LGD1       -0.2162
      8  N8        -1.8040   -0.6650    1.4400 N.pl3   1  LGD1       -0.0737
      9  N9         0.3560   -0.5730    0.3680 N.ar    1  LGD1       -0.2027
     10  N10        0.9970   -2.1130   -1.3590 N.ar    1  LGD1       -0.1866
     11  N11        3.4450   -0.9410   -1.5200 N.ar    1  LGD1       -0.2224
     12  N12        2.7870    0.6450    0.2990 N.ar    1  LGD1       -0.2224
     13  C13       -0.3360   -6.0000    5.3110 C.3     1  LGD1        0.0189
     14  C14       -0.6630   -4.7720    4.5560 C.ar    1  LGD1       -0.0227
     15  C15       -1.6000   -6.8090    5.6840 C.3     1  LGD1        0.0044
     16  C16        0.4400   -5.6310    6.5890 C.3     1  LGD1        0.0044
     17  C17        0.4680   -7.0470    4.5530 C.3     1  LGD1        0.0044
     18  C18        0.3710   -3.9310    4.1700 C.ar    1  LGD1       -0.0029
     19  C19       -1.9920   -4.3450    4.3180 C.ar    1  LGD1       -0.0029
     20  C20       -1.2530   -2.2700    3.4720 C.ar    1  LGD1        0.1271
     21  C21        0.0440   -2.7060    3.5630 C.ar    1  LGD1        0.0199
     22  C22       -2.3440   -3.1390    3.7790 C.ar    1  LGD1        0.0199
     23  C23       -0.8150   -1.1170    0.5260 C.ar    1  LGD1        0.2125
     24  C24       -1.1570   -2.2690   -0.2720 C.ar    1  LGD1        0.2327
     25  C25       -0.2470   -2.7280   -1.2530 C.ar    1  LGD1        0.2651
     26  C26        1.1890   -1.0250   -0.5290 C.ar    1  LGD1        0.2028
     27  C27       -2.8730   -4.1110   -0.2090 C.ar    1  LGD1        0.1793
     28  C28        2.5800   -0.3910   -0.6340 C.ar    1  LGD1        0.1990
     29  C29       -0.7960   -3.3430   -3.4450 C.3     1  LGD1        0.2426
     30  C30       -2.0950   -5.1010    0.4100 C.ar    1  LGD1        0.1730
     31  C31       -4.0020   -4.4750   -1.0010 C.ar    1  LGD1        0.0406
     32  C32       -2.6080   -6.4360    0.4450 C.ar    1  LGD1        0.0401
     33  C33       -1.5730   -4.3030   -4.3390 C.3     1  LGD1        0.2292
     34  C34       -4.4310   -5.8030   -0.8990 C.ar    1  LGD1        0.0033
     35  C35       -3.7390   -6.8060   -0.2040 C.ar    1  LGD1        0.0033
     36  C36        4.6850   -0.4200   -1.5000 C.ar    1  LGD1        0.1023
     37  C37        4.0200    1.2000    0.2290 C.ar    1  LGD1        0.1023
     38  C38        4.9740    0.5840   -0.5600 C.ar    1  LGD1        0.0414
     39  C39        0.2230   -5.5170    0.9220 C.3     1  LGD1        0.2526
@<TRIPOS>BOND
     1    33     7    1
     2    33    29    1
     3     5    29    1
     4     5    25    1
     5    10    25   ar
     6    10    26   ar
     7    36    11   ar
     8    36    38   ar
     9    11    28   ar
    10    25    24   ar
    11    38    37   ar
    12    34    31   ar
    13    34    35   ar
    14    28    26    1
    15    28    12   ar
    16    26     9   ar
    17    31    27   ar
    18    37    12   ar
    19    24     4    1
    20    24    23   ar
    21     4    27    1
    22    27    30   ar
    23    35    32   ar
    24    15    13    1
    25     9    23   ar
    26    23     8    1
    27    30    32   ar
    28    30     6    1
    29     6    39    1
    30     8     1    1
    31    18    14   ar
    32    18    21   ar
    33    13    14    1
    34    13    17    1
    35    13    16    1
    36    14    19   ar
    37    21    20   ar
    38    20     1    1
    39    20    22   ar
    40    19    22   ar
    41     1     2    2
    42     1     3    2
@<TRIPOS>MOLECULE
6918493
 28 30 0 0 0
SMALL
GASTEIGER

@<TRIPOS>ATOM
      1 O          -1.0387   -6.8747    2.7530 O.3     1  LIG11      -0.3632
      2 O           0.6673   -4.5690    0.2778 O.3     1  LIG11      -0.4495
      3 O           0.2808   -7.0213   -0.9292 O.co2   1  LIG11      -0.5459
      4 O           1.1815   -8.0446    0.8884 O.co2   1  LIG11      -0.5459
      5 N           2.9587   -5.0585    0.1916 N.ar    1  LIG11      -0.2002
      6 N           1.8805   -3.7742   -1.5034 N.ar    1  LIG11      -0.2002
      7 C          -0.8243   -5.7039    1.9063 C.3     1  LIG11       0.1609
      8 C           0.5278   -5.7567    1.1163 C.3     1  LIG11       0.1791
      9 C          -2.0254   -5.6666    0.9142 C.ar    1  LIG11      -0.0075
     10 C          -0.9472   -4.5009    2.9069 C.ar    1  LIG11      -0.0075
     11 C          -2.4562   -4.4611    0.3256 C.ar    1  LIG11      -0.0554
     12 C           0.0575   -3.5367    3.0936 C.ar    1  LIG11      -0.0554
     13 C          -2.6965   -6.8471    0.5461 C.ar    1  LIG11      -0.0554
     14 C          -2.1136   -4.3836    3.6975 C.ar    1  LIG11      -0.0554
     15 C           0.6502   -7.0626    0.2792 C.2     1  LIG11       0.0856
     16 C          -0.0273   -7.1789    3.7026 C.3     1  LIG11       0.0382
     17 C          -3.5348   -4.4341   -0.5630 C.ar    1  LIG11      -0.0614
     18 C          -0.1027   -2.4955    4.0150 C.ar    1  LIG11      -0.0614
     19 C          -3.7688   -6.8214   -0.3492 C.ar    1  LIG11      -0.0614
     20 C          -2.2723   -3.3457    4.6179 C.ar    1  LIG11      -0.0614
     21 C          -4.1931   -5.6142   -0.8974 C.ar    1  LIG11      -0.0617
     22 C          -1.2655   -2.3994    4.7751 C.ar    1  LIG11      -0.0617
     23 C           1.8744   -4.5112   -0.3814 C.ar    1  LIG11       0.3191
     24 C           4.0996   -5.0105   -0.5156 C.ar    1  LIG11       0.0453
     25 C           3.0402   -3.7362   -2.1830 C.ar    1  LIG11       0.0453
     26 C           4.1887   -4.3567   -1.7285 C.ar    1  LIG11      -0.0193
     27 C           5.2847   -5.7276    0.0527 C.3     1  LIG11      -0.0221
     28 C           3.0421   -3.0087   -3.4921 C.3     1  LIG11      -0.0221
@<TRIPOS>BOND
     1     1     7    1
     2     1    16    1
     3     2     8    1
     4     2    23    1
     5     3    15   ar
     6     4    15   ar
     7     5    23   ar
     8     5    24   ar
     9     6    23   ar
    10     6    25   ar
    11     7     8    1
    12     7     9    1
    13     7    10    1
    14     8    15    1
    15     9    11   ar
    16     9    13   ar
    17    10    12   ar
    18    10    14   ar
    19    11    17   ar
    20    12    18   ar
    21    13    19   ar
    22    14    20   ar
    23    17    21   ar
    24    18    22   ar
    25    19    21   ar
    26    20    22   ar
    27    24    26   ar
    28    24    27    1
    29    25    26   ar
    30    25    28    1
