@<TRIPOS>MOLECULE
BOSENTAN_50CONFORMERS.pdb
 39 42 0 0 0
SMALL
GASTEIGER

@<TRIPOS>ATOM
      1  S1        -1.6380    0.4520    2.5530 S.O2    1  LGD1        0.0943
      2  O2        -0.9430    1.5530    1.8690 O.2     1  LGD1       -0.1483
      3  O3        -3.0960    0.5500    3.0770 O.2     1  LGD1       -0.1483
      4  O4        -2.4120   -2.8220   -0.2000 O.3     1  LGD1       -0.4427
      5  O5        -0.5340   -3.8120   -2.0060 O.3     1  LGD1       -0.4552
      6  O6        -0.4910   -4.3080    1.3710 O.3     1  LGD1       -0.4684
      7  O7        -0.4400   -6.6010   -2.4770 O.3     1  LGD1       -0.2162
      8  N8        -1.8270   -0.7290    1.3910 N.pl3   1  LGD1       -0.0737
      9  N9         0.4360   -0.6140    0.4870 N.ar    1  LGD1       -0.2027
     10  N10        0.8980   -2.0270   -1.4580 N.ar    1  LGD1       -0.1866
     11  N11        2.6950    0.8870   -0.3470 N.ar    1  LGD1       -0.2224
     12  N12        3.6270   -1.2550   -1.1730 N.ar    1  LGD1       -0.2224
     13  C13        1.7130   -2.4230    6.7540 C.3     1  LGD1        0.0189
     14  C14        0.8270   -1.7620    5.6840 C.ar    1  LGD1       -0.0227
     15  C15        1.0380   -3.2710    7.8820 C.3     1  LGD1        0.0044
     16  C16        2.4680   -1.2690    7.5150 C.3     1  LGD1        0.0044
     17  C17        2.6410   -3.4500    6.1780 C.3     1  LGD1        0.0044
     18  C18        1.4580   -1.1590    4.5770 C.ar    1  LGD1       -0.0029
     19  C19       -0.5930   -1.8260    5.6670 C.ar    1  LGD1       -0.0029
     20  C20       -0.6330   -0.2730    3.7730 C.ar    1  LGD1        0.1271
     21  C21        0.7930   -0.3520    3.6620 C.ar    1  LGD1        0.0199
     22  C22       -1.2860   -1.0290    4.7660 C.ar    1  LGD1        0.0199
     23  C23       -0.8480   -1.1160    0.4900 C.ar    1  LGD1        0.2125
     24  C24       -1.1770   -2.1910   -0.3460 C.ar    1  LGD1        0.2327
     25  C25       -0.2150   -2.7500   -1.1900 C.ar    1  LGD1        0.2651
     26  C26        1.2490   -1.0370   -0.5600 C.ar    1  LGD1        0.2028
     27  C27       -2.5510   -4.1770    0.1130 C.ar    1  LGD1        0.1793
     28  C28        2.6410   -0.3920   -0.7200 C.ar    1  LGD1        0.1990
     29  C29        0.6120   -4.5010   -2.4450 C.3     1  LGD1        0.2426
     30  C30       -1.6150   -4.9470    0.8760 C.ar    1  LGD1        0.1730
     31  C31       -3.6600   -4.7870   -0.4160 C.ar    1  LGD1        0.0406
     32  C32       -1.8490   -6.2890    1.1500 C.ar    1  LGD1        0.0401
     33  C33        0.1340   -5.6730   -3.3000 C.3     1  LGD1        0.2292
     34  C34       -3.8910   -6.1580   -0.1930 C.ar    1  LGD1        0.0033
     35  C35       -2.9220   -6.9580    0.5020 C.ar    1  LGD1        0.0033
     36  C36        4.0070    1.3460   -0.2270 C.ar    1  LGD1        0.1023
     37  C37        4.8520   -0.7130   -1.2390 C.ar    1  LGD1        0.1023
     38  C38        5.0570    0.5420   -0.6370 C.ar    1  LGD1        0.0414
     39  C39       -0.6190   -3.7450    2.7830 C.3     1  LGD1        0.2526
@<TRIPOS>BOND
     1    33     7    1
     2    33    29    1
     3     5    29    1
     4     5    25    1
     5    10    25   ar
     6    10    26   ar
     7    36    11   ar
     8    36    38   ar
     9    11    28   ar
    10    25    24   ar
    11    38    37   ar
    12    34    31   ar
    13    34    35   ar
    14    28    26    1
    15    28    12   ar
    16    26     9   ar
    17    31    27   ar
    18    37    12   ar
    19    24     4    1
    20    24    23   ar
    21     4    27    1
    22    27    30   ar
    23    35    32   ar
    24    15    13    1
    25     9    23   ar
    26    23     8    1
    27    30    32   ar
    28    30     6    1
    29     6    39    1
    30     8     1    1
    31    18    14   ar
    32    18    21   ar
    33    13    14    1
    34    13    17    1
    35    13    16    1
    36    14    19   ar
    37    21    20   ar
    38    20     1    1
    39    20    22   ar
    40    19    22   ar
    41     1     2    2
    42     1     3    2
@<TRIPOS>MOLECULE
159594
 37 40 0 0 0
SMALL
GASTEIGER

@<TRIPOS>ATOM
      1 O           0.8359   -6.2657    4.0983 O.co2   1  LIG11      -0.5493
      2 O          -1.4311   -6.2980    4.3624 O.co2   1  LIG11      -0.5493
      3 O          -0.6201    1.2413    3.2912 O.3     1  LIG11      -0.4526
      4 O           2.6012   -5.9069    0.7273 O.2     1  LIG11      -0.2697
      5 O          -1.0612    1.4069    5.6580 O.3     1  LIG11      -0.4526
      6 O          -5.0290   -5.9587   -1.0913 O.3     1  LIG11      -0.4951
      7 N           0.6930   -3.7997    1.3089 N.3     1  LIG11       0.2481
      8 N           2.6519   -5.5610   -1.5383 N.am    1  LIG11      -0.2971
      9 C          -0.4388   -4.4736    3.2911 C.3     1  LIG11       0.0574
     10 C           0.7442   -3.5745    3.6869 C.3     1  LIG11       0.0378
     11 C          -0.2282   -4.9077    1.8392 C.3     1  LIG11       0.0143
     12 C           1.6497   -3.5756    2.4556 C.3     1  LIG11      -0.0230
     13 C           0.2627   -2.2164    4.1835 C.ar    1  LIG11      -0.0347
     14 C          -1.5232   -5.0755    1.0462 C.ar    1  LIG11       0.0011
     15 C           1.3166   -4.0342   -0.0520 C.3     1  LIG11       0.0468
     16 C          -0.3335   -5.8070    4.0033 C.2     1  LIG11       0.0513
     17 C           0.0707   -1.0946    3.3630 C.ar    1  LIG11      -0.0125
     18 C           2.2308   -5.2465   -0.2417 C.2     1  LIG11       0.2608
     19 C          -0.0222   -2.1034    5.5707 C.ar    1  LIG11      -0.0544
     20 C          -2.0875   -4.0936    0.2149 C.ar    1  LIG11      -0.0498
     21 C          -2.2033   -6.3002    1.1530 C.ar    1  LIG11      -0.0498
     22 C          -0.3804    0.0736    3.9484 C.ar    1  LIG11       0.1665
     23 C          -0.4649   -0.9040    6.1358 C.ar    1  LIG11      -0.0159
     24 C          -0.6360    0.1688    5.2948 C.ar    1  LIG11       0.1662
     25 C          -3.2516   -4.3516   -0.5278 C.ar    1  LIG11      -0.0195
     26 C          -3.3744   -6.5460    0.4310 C.ar    1  LIG11      -0.0195
     27 C           3.6102   -6.6741   -1.6558 C.3     1  LIG11       0.0148
     28 C           2.4506   -4.7360   -2.7388 C.3     1  LIG11       0.0148
     29 C          -3.8956   -5.5827   -0.4281 C.ar    1  LIG11       0.1201
     30 C           5.0424   -6.3138   -1.2293 C.3     1  LIG11      -0.0374
     31 C           1.0122   -4.5347   -3.2354 C.3     1  LIG11      -0.0374
     32 C          -1.0687    2.0767    4.3823 C.3     1  LIG11       0.2332
     33 C           5.7714   -5.3049   -2.1195 C.3     1  LIG11      -0.0545
     34 C           0.0766   -5.7388   -3.1321 C.3     1  LIG11      -0.0545
     35 C           6.0686   -5.8305   -3.5148 C.3     1  LIG11      -0.0652
     36 C           0.4509   -6.8738   -4.0685 C.3     1  LIG11      -0.0652
     37 C          -5.5358   -5.0640   -2.0717 C.3     1  LIG11       0.0788
@<TRIPOS>BOND
     1     1    16   ar
     2     2    16   ar
     3     3    22    1
     4     3    32    1
     5     4    18    2
     6     5    24    1
     7     5    32    1
     8     6    29    1
     9     6    37    1
    10     7    11    1
    11     7    12    1
    12     7    15    1
    13     8    18   am
    14     8    27    1
    15     8    28    1
    16     9    10    1
    17     9    11    1
    18     9    16    1
    19    10    12    1
    20    10    13    1
    21    11    14    1
    22    13    17   ar
    23    13    19   ar
    24    14    20   ar
    25    14    21   ar
    26    15    18    1
    27    17    22   ar
    28    19    23   ar
    29    20    25   ar
    30    21    26   ar
    31    22    24   ar
    32    23    24   ar
    33    25    29   ar
    34    26    29   ar
    35    27    30    1
    36    28    31    1
    37    30    33    1
    38    31    34    1
    39    33    35    1
    40    34    36    1
