@<TRIPOS>MOLECULE
BOSENTAN_50CONFORMERS.pdb
 39 42 0 0 0
SMALL
GASTEIGER

@<TRIPOS>ATOM
      1  S1        -1.7190   -1.1980    3.1480 S.O2    1  LGD1        0.0943
      2  O2        -1.0650   -2.5580    3.0820 O.2     1  LGD1       -0.1483
      3  O3        -1.0440   -0.0940    3.8910 O.2     1  LGD1       -0.1483
      4  O4        -2.4210   -2.9380   -0.3040 O.3     1  LGD1       -0.4427
      5  O5        -0.4360   -3.8110   -2.0740 O.3     1  LGD1       -0.4552
      6  O6        -4.1480   -4.6140    1.0730 O.3     1  LGD1       -0.4684
      7  O7         0.3790   -6.3290   -1.3010 O.3     1  LGD1       -0.2162
      8  N8        -1.7990   -0.6700    1.5370 N.pl3   1  LGD1       -0.0737
      9  N9         0.3940   -0.5880    0.3840 N.ar    1  LGD1       -0.2027
     10  N10        0.9270   -2.1020   -1.4260 N.ar    1  LGD1       -0.1866
     11  N11        3.3820   -0.9880   -1.4720 N.ar    1  LGD1       -0.2224
     12  N12        2.2790    1.1290   -0.8550 N.ar    1  LGD1       -0.2224
     13  C13       -7.5590   -1.0820    4.8620 C.3     1  LGD1        0.0189
     14  C14       -6.1270   -1.0490    4.3390 C.ar    1  LGD1       -0.0227
     15  C15       -8.3990   -2.3140    4.5870 C.3     1  LGD1        0.0044
     16  C16       -8.3430    0.0760    4.2990 C.3     1  LGD1        0.0044
     17  C17       -7.6530   -0.8810    6.4090 C.3     1  LGD1        0.0044
     18  C18       -5.3940    0.1080    3.9290 C.ar    1  LGD1       -0.0029
     19  C19       -5.4270   -2.2600    4.3400 C.ar    1  LGD1       -0.0029
     20  C20       -3.4020   -1.1640    3.6230 C.ar    1  LGD1        0.1271
     21  C21       -4.0470    0.0480    3.5190 C.ar    1  LGD1        0.0199
     22  C22       -4.1070   -2.3380    3.8750 C.ar    1  LGD1        0.0199
     23  C23       -0.8690   -1.1110    0.5130 C.ar    1  LGD1        0.2125
     24  C24       -1.2210   -2.1680   -0.3820 C.ar    1  LGD1        0.2327
     25  C25       -0.2100   -2.7390   -1.1960 C.ar    1  LGD1        0.2651
     26  C26        1.1950   -1.0880   -0.5480 C.ar    1  LGD1        0.2028
     27  C27       -3.7060   -2.5140   -0.0890 C.ar    1  LGD1        0.1793
     28  C28        2.4070   -0.2460   -0.9000 C.ar    1  LGD1        0.1990
     29  C29        0.6550   -4.4970   -2.7390 C.3     1  LGD1        0.2426
     30  C30       -4.5570   -3.3220    0.6690 C.ar    1  LGD1        0.1730
     31  C31       -4.1460   -1.2830   -0.5860 C.ar    1  LGD1        0.0406
     32  C32       -5.7720   -2.8520    1.1050 C.ar    1  LGD1        0.0401
     33  C33        1.3350   -5.4170   -1.7390 C.3     1  LGD1        0.2292
     34  C34       -5.3860   -0.7930   -0.1220 C.ar    1  LGD1        0.0033
     35  C35       -6.1520   -1.5580    0.7430 C.ar    1  LGD1        0.0033
     36  C36        4.4450   -0.3090   -1.9620 C.ar    1  LGD1        0.1023
     37  C37        3.3930    1.7710   -1.2500 C.ar    1  LGD1        0.1023
     38  C38        4.4320    1.0600   -1.7550 C.ar    1  LGD1        0.0414
     39  C39       -4.5040   -5.5700    0.0920 C.3     1  LGD1        0.2526
@<TRIPOS>BOND
     1    33     7    1
     2    33    29    1
     3     5    29    1
     4     5    25    1
     5    10    25   ar
     6    10    26   ar
     7    36    11   ar
     8    36    38   ar
     9    11    28   ar
    10    25    24   ar
    11    38    37   ar
    12    34    31   ar
    13    34    35   ar
    14    28    26    1
    15    28    12   ar
    16    26     9   ar
    17    31    27   ar
    18    37    12   ar
    19    24     4    1
    20    24    23   ar
    21     4    27    1
    22    27    30   ar
    23    35    32   ar
    24    15    13    1
    25     9    23   ar
    26    23     8    1
    27    30    32   ar
    28    30     6    1
    29     6    39    1
    30     8     1    1
    31    18    14   ar
    32    18    21   ar
    33    13    14    1
    34    13    17    1
    35    13    16    1
    36    14    19   ar
    37    21    20   ar
    38    20     1    1
    39    20    22   ar
    40    19    22   ar
    41     1     2    2
    42     1     3    2
@<TRIPOS>MOLECULE
16004692
 32 34 0 0 0
SMALL
GASTEIGER

@<TRIPOS>ATOM
      1 BR         -3.5434   -0.7338    6.5849 Br      1  LIG11      -0.0503
      2 BR          0.9445    2.8668   -3.6735 Br      1  LIG11      -0.0472
      3 S          -9.2362   -2.5623    1.6983 S.O2    1  LIG11       0.1104
      4 O          -4.4739    0.4488   -0.0977 O.3     1  LIG11      -0.4724
      5 O          -9.6890   -3.4548    2.7363 O.2     1  LIG11      -0.1381
      6 O          -9.9115   -2.5535    0.4217 O.2     1  LIG11      -0.1381
      7 O          -3.2766    2.9378    0.4631 O.3     1  LIG11      -0.4590
      8 N          -9.3741   -1.0038    2.2695 N.3     1  LIG11      -0.1771
      9 N          -7.6042   -2.8846    1.4892 N.pl3   1  LIG11      -0.1889
     10 N          -7.2967   -2.3858   -0.7403 N.ar    1  LIG11      -0.2186
     11 N          -5.7054   -0.8028   -1.4920 N.ar    1  LIG11      -0.2008
     12 N          -2.4227    2.0445   -1.4784 N.ar    1  LIG11      -0.2022
     13 N          -1.4519    3.9881   -0.4934 N.ar    1  LIG11      -0.2022
     14 C          -8.4159   -0.3774    3.1692 C.3     1  LIG11       0.0185
     15 C          -5.7575   -1.3803    0.8522 C.ar    1  LIG11       0.0848
     16 C          -6.8647   -2.1624    0.5054 C.ar    1  LIG11       0.1532
     17 C          -8.3333   -0.8058    4.6184 C.3     1  LIG11      -0.0416
     18 C          -5.2384   -1.2631    2.2305 C.ar    1  LIG11      -0.0094
     19 C          -5.2502   -0.6648   -0.2270 C.ar    1  LIG11       0.2276
     20 C          -7.8859   -2.2333    4.9040 C.3     1  LIG11      -0.0641
     21 C          -4.7174   -2.3629    2.9301 C.ar    1  LIG11      -0.0527
     22 C          -5.2288   -0.0130    2.8755 C.ar    1  LIG11      -0.0527
     23 C          -3.2299    0.4094    0.5991 C.3     1  LIG11       0.1252
     24 C          -4.2152   -2.2047    4.2297 C.ar    1  LIG11      -0.0472
     25 C          -4.7134    0.1537    4.1585 C.ar    1  LIG11      -0.0472
     26 C          -6.6938   -1.6754   -1.6915 C.ar    1  LIG11       0.1219
     27 C          -3.0291    1.7878    1.2788 C.3     1  LIG11       0.1267
     28 C          -4.2104   -0.9483    4.8364 C.ar    1  LIG11       0.0179
     29 C          -2.3691    3.0051   -0.5455 C.ar    1  LIG11       0.3180
     30 C          -1.4388    2.0110   -2.3846 C.ar    1  LIG11       0.0483
     31 C          -0.5149    3.9377   -1.4576 C.ar    1  LIG11       0.0483
     32 C          -0.4388    2.9482   -2.4205 C.ar    1  LIG11       0.0543
@<TRIPOS>BOND
     1     1    28    1
     2     2    32    1
     3     3     5    2
     4     3     6    2
     5     3     8    1
     6     3     9    1
     7     4    19    1
     8     4    23    1
     9     7    27    1
    10     7    29    1
    11     8    14    1
    12     9    16    1
    13    10    16   ar
    14    10    26   ar
    15    11    19   ar
    16    11    26   ar
    17    12    29   ar
    18    12    30   ar
    19    13    29   ar
    20    13    31   ar
    21    14    17    1
    22    15    16   ar
    23    15    18    1
    24    15    19   ar
    25    17    20    1
    26    18    21   ar
    27    18    22   ar
    28    21    24   ar
    29    22    25   ar
    30    23    27    1
    31    24    28   ar
    32    25    28   ar
    33    30    32   ar
    34    31    32   ar
