@<TRIPOS>MOLECULE
BOSENTAN_50CONFORMERS.pdb
 39 42 0 0 0
SMALL
GASTEIGER

@<TRIPOS>ATOM
      1  S1        -1.6410    0.6860    2.4560 S.O2    1  LGD1        0.0943
      2  O2        -1.3520    1.8340    1.5570 O.2     1  LGD1       -0.1483
      3  O3        -2.8280    0.6310    3.3500 O.2     1  LGD1       -0.1483
      4  O4        -2.5220   -2.6610   -0.2930 O.3     1  LGD1       -0.4427
      5  O5        -0.5450   -3.8450   -2.0380 O.3     1  LGD1       -0.4552
      6  O6        -5.1660   -2.9260    0.7860 O.3     1  LGD1       -0.4684
      7  O7         0.0380   -6.7410   -2.8450 O.3     1  LGD1       -0.2162
      8  N8        -1.7810   -0.7390    1.4900 N.pl3   1  LGD1       -0.0737
      9  N9         0.3880   -0.5790    0.3990 N.ar    1  LGD1       -0.2027
     10  N10        1.0090   -2.0750   -1.3690 N.ar    1  LGD1       -0.1866
     11  N11        3.4500   -0.9450   -1.4270 N.ar    1  LGD1       -0.2224
     12  N12        2.6080    0.9490   -0.1290 N.ar    1  LGD1       -0.2224
     13  C13        3.0060   -0.4140    6.2670 C.3     1  LGD1        0.0189
     14  C14        1.7960   -0.2250    5.3460 C.ar    1  LGD1       -0.0227
     15  C15        3.6020    0.8790    6.7690 C.3     1  LGD1        0.0044
     16  C16        4.0990   -1.2220    5.5180 C.3     1  LGD1        0.0044
     17  C17        2.7020   -1.3170    7.5110 C.3     1  LGD1        0.0044
     18  C18        0.5860   -0.9460    5.4420 C.ar    1  LGD1       -0.0029
     19  C19        1.9640    0.7150    4.2860 C.ar    1  LGD1       -0.0029
     20  C20       -0.2480    0.3390    3.5910 C.ar    1  LGD1        0.1271
     21  C21       -0.4380   -0.6670    4.5460 C.ar    1  LGD1        0.0199
     22  C22        0.9140    1.0760    3.4700 C.ar    1  LGD1        0.0199
     23  C23       -0.8660   -1.1160    0.4880 C.ar    1  LGD1        0.2125
     24  C24       -1.2140   -2.1850   -0.3940 C.ar    1  LGD1        0.2327
     25  C25       -0.2410   -2.7090   -1.2100 C.ar    1  LGD1        0.2651
     26  C26        1.2320   -1.0290   -0.5570 C.ar    1  LGD1        0.2028
     27  C27       -3.6100   -1.9910   -0.8550 C.ar    1  LGD1        0.1793
     28  C28        2.5120   -0.2650   -0.7460 C.ar    1  LGD1        0.1990
     29  C29        0.5500   -4.2720   -2.9720 C.3     1  LGD1        0.2426
     30  C30       -4.8960   -2.1580   -0.3670 C.ar    1  LGD1        0.1730
     31  C31       -3.4260   -0.9480   -1.7950 C.ar    1  LGD1        0.0406
     32  C32       -5.9660   -1.4110   -0.8700 C.ar    1  LGD1        0.0401
     33  C33        0.2550   -5.6500   -3.6940 C.3     1  LGD1        0.2292
     34  C34       -4.4950   -0.1990   -2.2740 C.ar    1  LGD1        0.0033
     35  C35       -5.7700   -0.4310   -1.8670 C.ar    1  LGD1        0.0033
     36  C36        4.6630   -0.3400   -1.5250 C.ar    1  LGD1        0.1023
     37  C37        3.8560    1.4910   -0.1510 C.ar    1  LGD1        0.1023
     38  C38        4.8320    0.8620   -0.8950 C.ar    1  LGD1        0.0414
     39  C39       -5.6290   -4.2950    0.5660 C.3     1  LGD1        0.2526
@<TRIPOS>BOND
     1    33     7    1
     2    33    29    1
     3     5    29    1
     4     5    25    1
     5    10    25   ar
     6    10    26   ar
     7    36    11   ar
     8    36    38   ar
     9    11    28   ar
    10    25    24   ar
    11    38    37   ar
    12    34    31   ar
    13    34    35   ar
    14    28    26    1
    15    28    12   ar
    16    26     9   ar
    17    31    27   ar
    18    37    12   ar
    19    24     4    1
    20    24    23   ar
    21     4    27    1
    22    27    30   ar
    23    35    32   ar
    24    15    13    1
    25     9    23   ar
    26    23     8    1
    27    30    32   ar
    28    30     6    1
    29     6    39    1
    30     8     1    1
    31    18    14   ar
    32    18    21   ar
    33    13    14    1
    34    13    17    1
    35    13    16    1
    36    14    19   ar
    37    21    20   ar
    38    20     1    1
    39    20    22   ar
    40    19    22   ar
    41     1     2    2
    42     1     3    2
@<TRIPOS>MOLECULE
*****
 29 31 0 0 0
SMALL
GASTEIGER

@<TRIPOS>ATOM
      1 BR         -7.7020   -1.3650   -1.8040 Br      1  LIG11      -0.0503
      2 BR         -0.7204    1.7706    5.1100 Br      1  LIG11      -0.0472
      3 S          -1.8279    2.2562    0.3680 S.O2    1  LIG11       0.1079
      4 O          -1.3227   -3.3695   -0.0017 O.3     1  LIG11      -0.4724
      5 O          -0.7145    2.2413    1.2814 O.2     1  LIG11      -0.1383
      6 O          -2.4560    3.4875   -0.0405 O.2     1  LIG11      -0.1383
      7 O           0.9689   -3.1620    2.2637 O.3     1  LIG11      -0.4590
      8 N          -3.0394    1.3539    1.0629 N.3     1  LIG11      -0.1906
      9 N          -1.4945    1.3837   -1.0180 N.pl3   1  LIG11      -0.1891
     10 N           0.4441    0.2208   -0.7950 N.ar    1  LIG11      -0.2186
     11 N           0.5371   -2.0966   -0.3037 N.ar    1  LIG11      -0.2008
     12 N           1.2773   -0.9407    2.7121 N.ar    1  LIG11      -0.2022
     13 N          -0.3543   -2.1816    3.9396 N.ar    1  LIG11      -0.2022
     14 C          -1.6278   -1.0602   -0.6245 C.ar    1  LIG11       0.0848
     15 C          -0.8926    0.1110   -0.8065 C.ar    1  LIG11       0.1532
     16 C          -3.0814   -1.1535   -0.8807 C.ar    1  LIG11      -0.0094
     17 C          -0.8074   -2.1312   -0.2979 C.ar    1  LIG11       0.2276
     18 C          -3.6126   -0.6859   -2.1006 C.ar    1  LIG11      -0.0527
     19 C          -3.9890   -1.6897    0.0478 C.ar    1  LIG11      -0.0527
     20 C          -1.3756   -3.5633    1.4244 C.3     1  LIG11       0.1252
     21 C          -4.9823   -0.7417   -2.3773 C.ar    1  LIG11      -0.0472
     22 C          -5.3605   -1.7606   -0.2273 C.ar    1  LIG11      -0.0472
     23 C           1.1012   -0.9109   -0.5359 C.ar    1  LIG11       0.1219
     24 C          -0.0847   -4.1098    2.0654 C.3     1  LIG11       0.1267
     25 C          -5.8507   -1.2834   -1.4382 C.ar    1  LIG11       0.0179
     26 C           0.6262   -2.0711    3.0249 C.ar    1  LIG11       0.3180
     27 C           0.8596    0.1809    3.3357 C.ar    1  LIG11       0.0483
     28 C          -0.7104   -1.0309    4.5536 C.ar    1  LIG11       0.0483
     29 C          -0.1441    0.1923    4.2745 C.ar    1  LIG11       0.0543
@<TRIPOS>BOND
     1     1    25    1
     2     2    29    1
     3     3     9    1
     4     3     8    1
     5     3     6    2
     6     3     5    2
     7     4    17    1
     8     4    20    1
     9     7    24    1
    10     7    26    1
    11     9    15    1
    12    10    15   ar
    13    10    23   ar
    14    11    17   ar
    15    11    23   ar
    16    12    26   ar
    17    12    27   ar
    18    13    26   ar
    19    13    28   ar
    20    14    15   ar
    21    14    17   ar
    22    16    18   ar
    23    16    19   ar
    24    16    14    1
    25    18    21   ar
    26    19    22   ar
    27    20    24    1
    28    21    25   ar
    29    22    25   ar
    30    27    29   ar
    31    28    29   ar
