@<TRIPOS>MOLECULE
BOSENTAN_50CONFORMERS.pdb
 39 42 0 0 0
SMALL
GASTEIGER

@<TRIPOS>ATOM
      1  S1        -1.8180   -1.3040    2.9190 S.O2    1  LGD1        0.0943
      2  O2        -0.9920   -2.5570    2.9330 O.2     1  LGD1       -0.1483
      3  O3        -1.4650   -0.1430    3.7450 O.2     1  LGD1       -0.1483
      4  O4        -2.3310   -3.0270   -0.0390 O.3     1  LGD1       -0.4427
      5  O5        -0.6020   -3.7280   -2.1830 O.3     1  LGD1       -0.4552
      6  O6        -4.1150   -5.1070    0.4720 O.3     1  LGD1       -0.4684
      7  O7        -0.9090   -4.8850   -4.9210 O.3     1  LGD1       -0.2162
      8  N8        -1.7480   -0.6300    1.4370 N.pl3   1  LGD1       -0.0737
      9  N9         0.3020   -0.4620    0.3810 N.ar    1  LGD1       -0.2027
     10  N10        0.9970   -2.1480   -1.3370 N.ar    1  LGD1       -0.1866
     11  N11        3.5020   -1.0990   -1.3780 N.ar    1  LGD1       -0.2224
     12  N12        2.5760    1.0050   -0.3820 N.ar    1  LGD1       -0.2224
     13  C13       -7.6460   -2.5010    3.4520 C.3     1  LGD1        0.0189
     14  C14       -6.1720   -2.2500    3.4930 C.ar    1  LGD1       -0.0227
     15  C15       -8.1790   -3.1380    4.7720 C.3     1  LGD1        0.0044
     16  C16       -8.1490   -3.4190    2.3450 C.3     1  LGD1        0.0044
     17  C17       -8.4710   -1.1970    3.2640 C.3     1  LGD1        0.0044
     18  C18       -5.6910   -0.9060    3.6680 C.ar    1  LGD1       -0.0029
     19  C19       -5.2300   -3.2730    3.3020 C.ar    1  LGD1       -0.0029
     20  C20       -3.4820   -1.6820    3.1470 C.ar    1  LGD1        0.1271
     21  C21       -4.3560   -0.6650    3.4890 C.ar    1  LGD1        0.0199
     22  C22       -3.8960   -3.0260    3.1370 C.ar    1  LGD1        0.0199
     23  C23       -0.8590   -1.1860    0.5180 C.ar    1  LGD1        0.2125
     24  C24       -1.1020   -2.2760   -0.2810 C.ar    1  LGD1        0.2327
     25  C25       -0.2010   -2.8410   -1.2110 C.ar    1  LGD1        0.2651
     26  C26        1.1950   -1.0050   -0.5160 C.ar    1  LGD1        0.2028
     27  C27       -3.6420   -2.8750   -0.5670 C.ar    1  LGD1        0.1793
     28  C28        2.5410   -0.2840   -0.7530 C.ar    1  LGD1        0.1990
     29  C29        0.4000   -4.4230   -2.9050 C.3     1  LGD1        0.2426
     30  C30       -4.5000   -3.9550   -0.2560 C.ar    1  LGD1        0.1730
     31  C31       -4.1300   -1.7550   -1.1030 C.ar    1  LGD1        0.0406
     32  C32       -5.8420   -3.8550   -0.7160 C.ar    1  LGD1        0.0401
     33  C33       -0.2710   -5.4790   -3.7750 C.3     1  LGD1        0.2292
     34  C34       -5.4460   -1.5930   -1.4810 C.ar    1  LGD1        0.0033
     35  C35       -6.2900   -2.6930   -1.3690 C.ar    1  LGD1        0.0033
     36  C36        4.6880   -0.4610   -1.6420 C.ar    1  LGD1        0.1023
     37  C37        3.7540    1.6380   -0.6350 C.ar    1  LGD1        0.1023
     38  C38        4.7630    0.8970   -1.2550 C.ar    1  LGD1        0.0414
     39  C39       -4.0070   -6.2920   -0.3130 C.3     1  LGD1        0.2526
@<TRIPOS>BOND
     1    33     7    1
     2    33    29    1
     3     5    29    1
     4     5    25    1
     5    10    25   ar
     6    10    26   ar
     7    36    11   ar
     8    36    38   ar
     9    11    28   ar
    10    25    24   ar
    11    38    37   ar
    12    34    31   ar
    13    34    35   ar
    14    28    26    1
    15    28    12   ar
    16    26     9   ar
    17    31    27   ar
    18    37    12   ar
    19    24     4    1
    20    24    23   ar
    21     4    27    1
    22    27    30   ar
    23    35    32   ar
    24    15    13    1
    25     9    23   ar
    26    23     8    1
    27    30    32   ar
    28    30     6    1
    29     6    39    1
    30     8     1    1
    31    18    14   ar
    32    18    21   ar
    33    13    14    1
    34    13    17    1
    35    13    16    1
    36    14    19   ar
    37    21    20   ar
    38    20     1    1
    39    20    22   ar
    40    19    22   ar
    41     1     2    2
    42     1     3    2
@<TRIPOS>MOLECULE
6433095
 41 45 0 0 0
SMALL
GASTEIGER

@<TRIPOS>ATOM
      1 S          -1.8305   -1.7986    2.6449 S.O2    1  LIG11       0.0908
      2 O          -1.9871   -3.4845   -0.6908 O.3     1  LIG11      -0.4435
      3 O           0.3073   -4.0733   -1.8939 O.3     1  LIG11      -0.4715
      4 O          -1.2167   -3.1018    2.4878 O.2     1  LIG11      -0.1484
      5 O          -1.2791   -0.8031    3.5404 O.2     1  LIG11      -0.1484
      6 O          -4.1653   -5.1182    0.1481 O.3     1  LIG11      -0.4914
      7 O           3.6127   -4.8538   -3.3200 O.3     1  LIG11      -0.3917
      8 N          -1.9863   -1.0892    1.1013 N.pl3   1  LIG11      -0.1950
      9 N           0.0974   -0.5808    0.2241 N.ar    1  LIG11      -0.2073
     10 N           1.2867   -2.0482   -1.2237 N.ar    1  LIG11      -0.1899
     11 N          -3.9258   -3.2959    3.3945 N.ar    1  LIG11      -0.2351
     12 N           4.2057    2.0191   -1.2878 N.ar    1  LIG11      -0.2552
     13 N           6.7074    1.0995   -2.4309 N.ar    1  LIG11      -0.5621
     14 N           6.3757   -0.9334   -1.4971 N.ar    1  LIG11      -0.1535
     15 N           7.7514    0.2686   -2.5452 N.ar    1  LIG11      -0.3597
     16 N           7.5996   -0.9463   -2.0049 N.ar    1  LIG11      -0.0878
     17 C          -0.9315   -1.4475    0.2058 C.ar    1  LIG11       0.1882
     18 C          -0.9616   -2.5906   -0.5679 C.ar    1  LIG11       0.2307
     19 C           0.2213   -2.8662   -1.2258 C.ar    1  LIG11       0.2641
     20 C           1.1644   -0.9094   -0.5180 C.ar    1  LIG11       0.1659
     21 C          -3.5594   -2.0222    3.1173 C.ar    1  LIG11       0.1969
     22 C           2.2314    0.0906   -0.7070 C.ar    1  LIG11       0.0227
     23 C          -4.4000   -0.9223    3.2016 C.ar    1  LIG11      -0.0160
     24 C          -3.2788   -3.0576   -0.8922 C.ar    1  LIG11       0.1702
     25 C           3.5381   -0.2839   -1.0629 C.ar    1  LIG11      -0.0252
     26 C          -6.1232   -2.4390    3.9566 C.ar    1  LIG11      -0.0322
     27 C          -5.7098   -1.1434    3.6276 C.ar    1  LIG11      -0.0541
     28 C           1.9578    1.4615   -0.6207 C.ar    1  LIG11      -0.0328
     29 C           1.3472   -4.1592   -2.8661 C.3     1  LIG11       0.1143
     30 C           4.4903    0.6928   -1.3493 C.ar    1  LIG11       0.0708
     31 C          -5.1991   -3.4724    3.8127 C.ar    1  LIG11       0.0327
     32 C          -4.3101   -3.8748   -0.4077 C.ar    1  LIG11       0.1621
     33 C          -3.5987   -1.8444   -1.5239 C.ar    1  LIG11      -0.0157
     34 C           2.9580    2.3705   -0.9212 C.ar    1  LIG11       0.0289
     35 C          -7.4934   -2.7163    4.4963 C.3     1  LIG11      -0.0383
     36 C           2.6755   -4.6237   -2.2715 C.3     1  LIG11       0.0783
     37 C          -5.6242   -3.3987   -0.4151 C.ar    1  LIG11      -0.0163
     38 C          -4.9173   -1.3851   -1.5328 C.ar    1  LIG11      -0.0581
     39 C          -5.9282   -2.1509   -0.9607 C.ar    1  LIG11      -0.0581
     40 C           5.8447    0.3151   -1.7558 C.ar    1  LIG11       0.0207
     41 C          -3.1524   -5.9430   -0.4260 C.3     1  LIG11       0.0790
@<TRIPOS>BOND
     1     1     4    2
     2     1     5    2
     3     1     8    1
     4     1    21    1
     5     2    18    1
     6     2    24    1
     7     3    19    1
     8     3    29    1
     9     6    32    1
    10     6    41    1
    11     7    36    1
    12     8    17    1
    13     9    17   ar
    14     9    20   ar
    15    10    19   ar
    16    10    20   ar
    17    11    21   ar
    18    11    31   ar
    19    12    30   ar
    20    12    34   ar
    21    13    15   ar
    22    13    40   ar
    23    14    16   ar
    24    14    40   ar
    25    15    16   ar
    26    17    18   ar
    27    18    19   ar
    28    20    22    1
    29    21    23   ar
    30    22    25   ar
    31    22    28   ar
    32    23    27   ar
    33    24    32   ar
    34    24    33   ar
    35    25    30   ar
    36    26    27   ar
    37    26    31   ar
    38    26    35    1
    39    28    34   ar
    40    29    36    1
    41    30    40    1
    42    32    37   ar
    43    33    38   ar
    44    37    39   ar
    45    38    39   ar
