@<TRIPOS>MOLECULE
BOSENTAN_50CONFORMERS.pdb
 39 42 0 0 0
SMALL
GASTEIGER

@<TRIPOS>ATOM
      1  S1        -1.8750    0.8810    1.9020 S.O2    1  LGD1        0.0943
      2  O2        -0.4850    1.4330    2.1710 O.2     1  LGD1       -0.1483
      3  O3        -2.7460    1.6410    0.9430 O.2     1  LGD1       -0.1483
      4  O4        -2.5330   -2.8560   -0.2030 O.3     1  LGD1       -0.4427
      5  O5        -0.5660   -3.7320   -2.0750 O.3     1  LGD1       -0.4552
      6  O6        -4.6690   -3.0700    1.4430 O.3     1  LGD1       -0.4684
      7  O7        -0.3610   -6.4310   -3.3060 O.3     1  LGD1       -0.2162
      8  N8        -1.7980   -0.6670    1.3760 N.pl3   1  LGD1       -0.0737
      9  N9         0.3840   -0.5540    0.4060 N.ar    1  LGD1       -0.2027
     10  N10        0.9830   -2.1010   -1.3900 N.ar    1  LGD1       -0.1866
     11  N11        3.0060   -0.2740   -1.9970 N.ar    1  LGD1       -0.2224
     12  N12        2.9650    0.3970    0.3750 N.ar    1  LGD1       -0.2224
     13  C13       -4.6440    0.4700    7.3320 C.3     1  LGD1        0.0189
     14  C14       -3.9960    0.5160    5.9730 C.ar    1  LGD1       -0.0227
     15  C15       -3.7470   -0.0570    8.4350 C.3     1  LGD1        0.0044
     16  C16       -5.7640   -0.5990    7.2780 C.3     1  LGD1        0.0044
     17  C17       -5.2260    1.7760    7.8220 C.3     1  LGD1        0.0044
     18  C18       -4.5650    1.3040    4.9640 C.ar    1  LGD1       -0.0029
     19  C19       -2.9090   -0.2740    5.6350 C.ar    1  LGD1       -0.0029
     20  C20       -2.7790    0.6810    3.4230 C.ar    1  LGD1        0.1271
     21  C21       -3.9880    1.3390    3.7120 C.ar    1  LGD1        0.0199
     22  C22       -2.2050   -0.1300    4.4490 C.ar    1  LGD1        0.0199
     23  C23       -0.8380   -1.1820    0.5410 C.ar    1  LGD1        0.2125
     24  C24       -1.2150   -2.2890   -0.2770 C.ar    1  LGD1        0.2327
     25  C25       -0.1800   -2.7250   -1.2010 C.ar    1  LGD1        0.2651
     26  C26        1.2110   -1.0290   -0.5730 C.ar    1  LGD1        0.2028
     27  C27       -3.7440   -2.2330   -0.5570 C.ar    1  LGD1        0.1793
     28  C28        2.4820   -0.2130   -0.7380 C.ar    1  LGD1        0.1990
     29  C29        0.3370   -4.0520   -3.1670 C.3     1  LGD1        0.2426
     30  C30       -4.8450   -2.2330    0.3130 C.ar    1  LGD1        0.1730
     31  C31       -3.8720   -1.4850   -1.7680 C.ar    1  LGD1        0.0406
     32  C32       -5.9800   -1.5090    0.0290 C.ar    1  LGD1        0.0401
     33  C33       -0.2720   -5.2170   -4.0130 C.3     1  LGD1        0.2292
     34  C34       -5.0220   -0.6910   -2.0130 C.ar    1  LGD1        0.0033
     35  C35       -6.0770   -0.7050   -1.1290 C.ar    1  LGD1        0.0033
     36  C36        4.0770    0.5470   -2.1800 C.ar    1  LGD1        0.1023
     37  C37        4.0400    1.1800    0.2170 C.ar    1  LGD1        0.1023
     38  C38        4.5470    1.2550   -1.1130 C.ar    1  LGD1        0.0414
     39  C39       -5.1820   -2.5490    2.6760 C.3     1  LGD1        0.2526
@<TRIPOS>BOND
     1    33     7    1
     2    33    29    1
     3     5    29    1
     4     5    25    1
     5    10    25   ar
     6    10    26   ar
     7    36    11   ar
     8    36    38   ar
     9    11    28   ar
    10    25    24   ar
    11    38    37   ar
    12    34    31   ar
    13    34    35   ar
    14    28    26    1
    15    28    12   ar
    16    26     9   ar
    17    31    27   ar
    18    37    12   ar
    19    24     4    1
    20    24    23   ar
    21     4    27    1
    22    27    30   ar
    23    35    32   ar
    24    15    13    1
    25     9    23   ar
    26    23     8    1
    27    30    32   ar
    28    30     6    1
    29     6    39    1
    30     8     1    1
    31    18    14   ar
    32    18    21   ar
    33    13    14    1
    34    13    17    1
    35    13    16    1
    36    14    19   ar
    37    21    20   ar
    38    20     1    1
    39    20    22   ar
    40    19    22   ar
    41     1     2    2
    42     1     3    2
@<TRIPOS>MOLECULE
01178588C
 32 34 0 0 0
SMALL
GASTEIGER

@<TRIPOS>ATOM
      1 S          -2.3305    0.5162    0.2602 S.O2    1  LIG11       0.0756
      2 C          -3.8412   -0.3927    0.3462 C.ar    1  LIG11       0.1344
      3 N          -1.1377   -0.5709    0.7768 N.pl3   1  LIG11      -0.1951
      4 O          -2.3602    1.5875    1.2253 O.2     1  LIG11      -0.1499
      5 O          -2.0946    0.8321   -1.1369 O.2     1  LIG11      -0.1499
      6 C          -4.5832   -0.5591    1.5108 C.ar    1  LIG11       0.0975
      7 C          -4.3599   -0.8898   -0.8653 C.ar    1  LIG11      -0.0315
      8 C          -0.6391   -1.4292   -0.2358 C.ar    1  LIG11       0.2006
      9 C          -4.2866   -0.0171    2.8468 C.ar    1  LIG11       0.0023
     10 N          -5.7680   -1.2455    1.4860 N.ar    1  LIG11      -0.2530
     11 C          -5.5670   -1.5744   -0.8824 C.ar    1  LIG11      -0.0417
     12 C          -1.2785   -2.6016   -0.6596 C.ar    1  LIG11       0.2574
     13 N           0.4561   -0.9390   -0.8505 N.ar    1  LIG11      -0.2325
     14 C          -5.1960    0.8742    3.4441 C.ar    1  LIG11      -0.0523
     15 C          -3.1612   -0.3907    3.5938 C.ar    1  LIG11      -0.0523
     16 C          -6.2279   -1.7312    0.3152 C.ar    1  LIG11       0.0284
     17 N          -0.8651   -3.2946   -1.7501 N.ar    1  LIG11      -0.2137
     18 O          -2.3363   -3.0782    0.0857 O.3     1  LIG11      -0.4773
     19 C           0.8525   -1.6304   -1.9462 C.ar    1  LIG11       0.0510
     20 C          -4.9771    1.4019    4.7202 C.ar    1  LIG11      -0.0579
     21 C          -2.9393    0.1393    4.8751 C.ar    1  LIG11      -0.0579
     22 C           0.2046   -2.7769   -2.4033 C.ar    1  LIG11       0.0602
     23 C          -2.8730   -4.3020   -0.4020 C.3     1  LIG11       0.0805
     24 C          -3.8461    1.0402    5.4543 C.ar    1  LIG11      -0.0465
     25 C           0.6600   -3.4636   -3.6530 C.3     1  LIG11      -0.0208
     26 C          -3.5738    1.6498    6.8180 C.3     1  LIG11      -0.0174
     27 C          -4.6186    1.4142    7.9359 C.3     1  LIG11       0.0085
     28 C          -5.8616    2.3347    7.8040 C.2     1  LIG11       0.0477
     29 C          -4.9876   -0.0681    8.0676 C.3     1  LIG11      -0.0544
     30 C          -4.0219    1.8912    9.2777 C.3     1  LIG11      -0.0544
     31 O          -5.6287    3.5253    7.4439 O.co2   1  LIG11      -0.5493
     32 O          -6.9742    1.8116    8.0985 O.co2   1  LIG11      -0.5493
@<TRIPOS>BOND
     1     1     5    2
     2     1     4    2
     3     1     3    1
     4     1     2    1
     5     2     6   ar
     6     2     7   ar
     7     3     8    1
     8     6    10   ar
     9     6     9    1
    10     7    11   ar
    11     8    12   ar
    12     8    13   ar
    13     9    14   ar
    14     9    15   ar
    15    10    16   ar
    16    11    16   ar
    17    12    17   ar
    18    12    18    1
    19    13    19   ar
    20    14    20   ar
    21    15    21   ar
    22    17    22   ar
    23    18    23    1
    24    19    22   ar
    25    20    24   ar
    26    21    24   ar
    27    22    25    1
    28    24    26    1
    29    26    27    1
    30    27    30    1
    31    27    29    1
    32    27    28    1
    33    28    32   ar
    34    28    31   ar
