@<TRIPOS>MOLECULE
BOSENTAN_50CONFORMERS.pdb
 39 42 0 0 0
SMALL
GASTEIGER

@<TRIPOS>ATOM
      1  S1        -2.2840   -1.7020    2.7920 S.O2    1  LGD1        0.0943
      2  O2        -1.2910   -2.8260    2.7750 O.2     1  LGD1       -0.1483
      3  O3        -2.3930   -0.8070    3.9400 O.2     1  LGD1       -0.1483
      4  O4        -2.4010   -2.8690   -0.1560 O.3     1  LGD1       -0.4427
      5  O5        -0.5180   -3.7820   -2.1180 O.3     1  LGD1       -0.4552
      6  O6        -3.7020   -5.1000   -1.0030 O.3     1  LGD1       -0.4684
      7  O7        -0.3340   -6.6490   -3.2110 O.3     1  LGD1       -0.2162
      8  N8        -1.7980   -0.6550    1.4700 N.pl3   1  LGD1       -0.0737
      9  N9         0.3470   -0.5780    0.4120 N.ar    1  LGD1       -0.2027
     10  N10        0.9650   -2.0960   -1.4250 N.ar    1  LGD1       -0.1866
     11  N11        2.8510    0.3790   -1.5520 N.ar    1  LGD1       -0.2224
     12  N12        3.4200   -0.7910    0.5080 N.ar    1  LGD1       -0.2224
     13  C13       -7.9070   -3.8870    2.0180 C.3     1  LGD1        0.0189
     14  C14       -6.5130   -3.3220    2.1770 C.ar    1  LGD1       -0.0227
     15  C15       -7.9750   -5.3620    1.5490 C.3     1  LGD1        0.0044
     16  C16       -8.7610   -3.2350    0.9520 C.3     1  LGD1        0.0044
     17  C17       -8.7090   -3.7420    3.2610 C.3     1  LGD1        0.0044
     18  C18       -6.0430   -2.2760    1.3750 C.ar    1  LGD1       -0.0029
     19  C19       -5.6600   -3.9500    3.0900 C.ar    1  LGD1       -0.0029
     20  C20       -3.9310   -2.3680    2.5310 C.ar    1  LGD1        0.1271
     21  C21       -4.7710   -1.7290    1.6020 C.ar    1  LGD1        0.0199
     22  C22       -4.3530   -3.4990    3.2810 C.ar    1  LGD1        0.0199
     23  C23       -0.8750   -1.0970    0.4740 C.ar    1  LGD1        0.2125
     24  C24       -1.1340   -2.2520   -0.2660 C.ar    1  LGD1        0.2327
     25  C25       -0.2040   -2.7310   -1.1970 C.ar    1  LGD1        0.2651
     26  C26        1.1990   -1.0880   -0.5410 C.ar    1  LGD1        0.2028
     27  C27       -3.3770   -2.7360   -1.1750 C.ar    1  LGD1        0.1793
     28  C28        2.6320   -0.5100   -0.5510 C.ar    1  LGD1        0.1990
     29  C29        0.5360   -4.4480   -2.8430 C.3     1  LGD1        0.2426
     30  C30       -4.0330   -3.9020   -1.6140 C.ar    1  LGD1        0.1730
     31  C31       -3.8180   -1.5030   -1.6590 C.ar    1  LGD1        0.0406
     32  C32       -4.9260   -3.8420   -2.6810 C.ar    1  LGD1        0.0401
     33  C33       -0.1530   -5.3780   -3.8670 C.3     1  LGD1        0.2292
     34  C34       -4.9050   -1.4360   -2.5290 C.ar    1  LGD1        0.0033
     35  C35       -5.3980   -2.6190   -3.1380 C.ar    1  LGD1        0.0033
     36  C36        3.9750    1.1460   -1.4440 C.ar    1  LGD1        0.1023
     37  C37        4.6250   -0.1930    0.5720 C.ar    1  LGD1        0.1023
     38  C38        4.8680    0.8060   -0.3410 C.ar    1  LGD1        0.0414
     39  C39       -4.7230   -5.5850   -0.2030 C.3     1  LGD1        0.2526
@<TRIPOS>BOND
     1    33     7    1
     2    33    29    1
     3     5    29    1
     4     5    25    1
     5    10    25   ar
     6    10    26   ar
     7    36    11   ar
     8    36    38   ar
     9    11    28   ar
    10    25    24   ar
    11    38    37   ar
    12    34    31   ar
    13    34    35   ar
    14    28    26    1
    15    28    12   ar
    16    26     9   ar
    17    31    27   ar
    18    37    12   ar
    19    24     4    1
    20    24    23   ar
    21     4    27    1
    22    27    30   ar
    23    35    32   ar
    24    15    13    1
    25     9    23   ar
    26    23     8    1
    27    30    32   ar
    28    30     6    1
    29     6    39    1
    30     8     1    1
    31    18    14   ar
    32    18    21   ar
    33    13    14    1
    34    13    17    1
    35    13    16    1
    36    14    19   ar
    37    21    20   ar
    38    20     1    1
    39    20    22   ar
    40    19    22   ar
    41     1     2    2
    42     1     3    2
@<TRIPOS>MOLECULE
*****
 39 42 0 0 0
SMALL
GASTEIGER

@<TRIPOS>ATOM
      1 C           5.3921   -3.2054   -1.4407 C.ar    1  LIG11       0.0483
      2 C           5.8320   -2.6053   -2.5969 C.ar    1  LIG11       0.0543
      3 C           4.9690   -2.6728   -3.6654 C.ar    1  LIG11       0.0483
      4 N           3.7630   -3.2784   -3.6140 N.ar    1  LIG11      -0.2022
      5 N           4.1964   -3.8211   -1.3298 N.ar    1  LIG11      -0.2022
      6 C          -5.3163   -3.1745   -2.3651 C.ar    1  LIG11      -0.0504
      7 C          -4.3336   -4.1281   -2.0879 C.ar    1  LIG11      -0.0583
      8 C          -3.0911   -3.7370   -1.5741 C.ar    1  LIG11      -0.0535
      9 C          -2.7944   -2.3850   -1.3304 C.ar    1  LIG11      -0.0094
     10 C          -3.8121   -1.4454   -1.5648 C.ar    1  LIG11      -0.0535
     11 C          -5.0576   -1.8340   -2.0691 C.ar    1  LIG11      -0.0583
     12 C          -6.3646   -1.7946    2.1305 C.ar    1  LIG11      -0.0561
     13 C          -5.0462   -1.3390    2.2248 C.ar    1  LIG11      -0.0348
     14 C          -4.0004   -2.2592    2.2281 C.ar    1  LIG11       0.1086
     15 C          -4.2635   -3.6249    2.1610 C.ar    1  LIG11      -0.0348
     16 C          -5.5850   -4.0715    2.0787 C.ar    1  LIG11      -0.0561
     17 C          -8.1274   -3.6618    1.9622 C.3     1  LIG11       0.0132
     18 C          -6.6656   -3.1689    2.0382 C.ar    1  LIG11      -0.0394
     19 C          -8.6537   -3.7890    3.4069 C.3     1  LIG11      -0.0537
     20 C          -8.2818   -5.0495    1.2723 C.3     1  LIG11       0.0533
     21 C          -9.0333   -2.6708    1.1918 C.3     1  LIG11      -0.0537
     22 O          -7.8816   -5.0274   -0.0954 O.3     1  LIG11      -0.3942
     23 S          -2.3282   -1.6931    2.4090 S.O2    1  LIG11       0.0735
     24 O          -2.3202   -0.8260    3.5715 O.2     1  LIG11      -0.1499
     25 O          -1.4570   -2.8413    2.3035 O.2     1  LIG11      -0.1499
     26 N          -2.1416   -0.6747    1.0672 N.pl3   1  LIG11      -0.1988
     27 C          -1.4409   -1.9533   -0.9322 C.ar    1  LIG11       0.0847
     28 C          -0.3010   -2.2548   -1.6745 C.ar    1  LIG11       0.2276
     29 N           0.9397   -1.8185   -1.3823 N.ar    1  LIG11      -0.2008
     30 C           1.0540   -1.0411   -0.3055 C.ar    1  LIG11       0.1219
     31 N           0.0475   -0.6312    0.4704 N.ar    1  LIG11      -0.2186
     32 C          -1.1610   -1.1151    0.1390 C.ar    1  LIG11       0.1524
     33 C          -6.6270   -3.5665   -2.9814 C.3     1  LIG11      -0.0397
     34 O          -0.4675   -3.0326   -2.8060 O.3     1  LIG11      -0.4724
     35 C           0.6613   -3.1408   -3.6819 C.3     1  LIG11       0.1252
     36 C           1.4022   -4.4619   -3.4565 C.3     1  LIG11       0.1267
     37 O           2.2142   -4.4588   -2.2822 O.3     1  LIG11      -0.4590
     38 C           3.4268   -3.8242   -2.4298 C.ar    1  LIG11       0.3180
     39 BR          7.4985   -1.7506   -2.7099 Br      1  LIG11      -0.0472
@<TRIPOS>BOND
     1     1     2   ar
     2     2     3   ar
     3     2    39    1
     4     3     4   ar
     5     4    38   ar
     6     5     1   ar
     7     6     7   ar
     8     6    33    1
     9     7     8   ar
    10     8     9   ar
    11     9    10   ar
    12    10    11   ar
    13    11     6   ar
    14    12    13   ar
    15    13    14   ar
    16    14    15   ar
    17    15    16   ar
    18    16    18   ar
    19    17    18    1
    20    17    21    1
    21    17    20    1
    22    17    19    1
    23    18    12   ar
    24    20    22    1
    25    23    26    1
    26    23    25    2
    27    23    24    2
    28    23    14    1
    29    26    32    1
    30    27    28   ar
    31    27     9    1
    32    28    29   ar
    33    29    30   ar
    34    30    31   ar
    35    31    32   ar
    36    32    27   ar
    37    34    35    1
    38    34    28    1
    39    35    36    1
    40    36    37    1
    41    37    38    1
    42    38     5   ar
