@<TRIPOS>MOLECULE
BOSENTAN_50CONFORMERS.pdb
 39 42 0 0 0
SMALL
GASTEIGER

@<TRIPOS>ATOM
      1  S1        -1.4390   -0.2770    2.9850 S.O2    1  LGD1        0.0943
      2  O2        -0.6700   -1.4790    3.3950 O.2     1  LGD1       -0.1483
      3  O3        -0.7820    1.0800    2.9240 O.2     1  LGD1       -0.1483
      4  O4        -2.3410   -2.9570   -0.1060 O.3     1  LGD1       -0.4427
      5  O5        -0.5880   -3.7510   -2.0700 O.3     1  LGD1       -0.4552
      6  O6        -0.6390   -4.6760    1.2730 O.3     1  LGD1       -0.4684
      7  O7         0.2720   -6.7200   -2.4470 O.3     1  LGD1       -0.2162
      8  N8        -1.8070   -0.6970    1.4040 N.pl3   1  LGD1       -0.0737
      9  N9         0.3430   -0.4940    0.3660 N.ar    1  LGD1       -0.2027
     10  N10        0.9830   -2.1230   -1.3670 N.ar    1  LGD1       -0.1866
     11  N11        2.5130    1.1060   -0.5040 N.ar    1  LGD1       -0.2224
     12  N12        3.6290   -1.0050   -1.1160 N.ar    1  LGD1       -0.2224
     13  C13       -6.5950    0.1700    6.2170 C.3     1  LGD1        0.0189
     14  C14       -5.3280   -0.0220    5.3910 C.ar    1  LGD1       -0.0227
     15  C15       -6.5870    1.3970    7.0820 C.3     1  LGD1        0.0044
     16  C16       -7.0120   -0.9870    7.1630 C.3     1  LGD1        0.0044
     17  C17       -7.7730    0.2730    5.3230 C.3     1  LGD1        0.0044
     18  C18       -4.6910   -1.2290    5.3750 C.ar    1  LGD1       -0.0029
     19  C19       -4.8140    1.0550    4.6240 C.ar    1  LGD1       -0.0029
     20  C20       -2.9390   -0.2310    3.9090 C.ar    1  LGD1        0.1271
     21  C21       -3.4680   -1.3120    4.6530 C.ar    1  LGD1        0.0199
     22  C22       -3.6280    0.9530    3.8950 C.ar    1  LGD1        0.0199
     23  C23       -0.8340   -1.1740    0.5510 C.ar    1  LGD1        0.2125
     24  C24       -1.1200   -2.2620   -0.3010 C.ar    1  LGD1        0.2327
     25  C25       -0.2210   -2.7180   -1.2450 C.ar    1  LGD1        0.2651
     26  C26        1.2260   -1.0560   -0.5310 C.ar    1  LGD1        0.2028
     27  C27       -2.7610   -3.5750    1.0700 C.ar    1  LGD1        0.1793
     28  C28        2.5840   -0.2650   -0.6670 C.ar    1  LGD1        0.1990
     29  C29        0.4340   -4.2220   -2.9040 C.3     1  LGD1        0.2426
     30  C30       -1.9740   -4.5840    1.6410 C.ar    1  LGD1        0.1730
     31  C31       -3.9860   -3.2280    1.6160 C.ar    1  LGD1        0.0406
     32  C32       -2.5570   -5.3210    2.7090 C.ar    1  LGD1        0.0401
     33  C33        0.0290   -5.6430   -3.4140 C.3     1  LGD1        0.2292
     34  C34       -4.5440   -3.9250    2.6490 C.ar    1  LGD1        0.0033
     35  C35       -3.8470   -5.0250    3.1700 C.ar    1  LGD1        0.0033
     36  C36        3.6780    1.8040   -0.6970 C.ar    1  LGD1        0.1023
     37  C37        4.7690   -0.3520   -1.2920 C.ar    1  LGD1        0.1023
     38  C38        4.7980    1.0310   -1.0460 C.ar    1  LGD1        0.0414
     39  C39       -0.1810   -5.9900    0.9310 C.3     1  LGD1        0.2526
@<TRIPOS>BOND
     1    33     7    1
     2    33    29    1
     3     5    29    1
     4     5    25    1
     5    10    25   ar
     6    10    26   ar
     7    36    11   ar
     8    36    38   ar
     9    11    28   ar
    10    25    24   ar
    11    38    37   ar
    12    34    31   ar
    13    34    35   ar
    14    28    26    1
    15    28    12   ar
    16    26     9   ar
    17    31    27   ar
    18    37    12   ar
    19    24     4    1
    20    24    23   ar
    21     4    27    1
    22    27    30   ar
    23    35    32   ar
    24    15    13    1
    25     9    23   ar
    26    23     8    1
    27    30    32   ar
    28    30     6    1
    29     6    39    1
    30     8     1    1
    31    18    14   ar
    32    18    21   ar
    33    13    14    1
    34    13    17    1
    35    13    16    1
    36    14    19   ar
    37    21    20   ar
    38    20     1    1
    39    20    22   ar
    40    19    22   ar
    41     1     2    2
    42     1     3    2
@<TRIPOS>MOLECULE
9911482
 30 32 0 0 0
SMALL
GASTEIGER

@<TRIPOS>ATOM
      1 S          -1.7025   -6.1233    4.2414 S.O2    1  LIG11       0.0758
      2 S          -4.5906   -3.3331    2.8349 S.2     1  LIG11      -0.0902
      3 O          -4.6453   -8.0505    4.3394 O.2     1  LIG11      -0.3377
      4 O          -0.9311   -5.1900    5.0343 O.2     1  LIG11      -0.1499
      5 O          -1.0770   -6.9254    3.2127 O.2     1  LIG11      -0.1499
      6 O          -3.8845   -4.9729    6.1538 O.2     1  LIG11      -0.2692
      7 O          -6.4022   -1.9168    7.0085 O.2     1  LIG11      -0.2923
      8 N          -4.0602   -2.7488    6.0096 N.am    1  LIG11      -0.2802
      9 N          -2.5949   -7.1065    5.2987 N.pl3   1  LIG11      -0.1831
     10 N          -5.0499   -9.2179    3.7166 N.ar    1  LIG11      -0.0810
     11 C          -4.0192   -1.4720    5.4138 C.ar    1  LIG11       0.0471
     12 C          -2.7913   -5.0713    3.3755 C.ar    1  LIG11       0.1277
     13 C          -2.8349   -0.9461    4.8667 C.ar    1  LIG11      -0.0283
     14 C          -5.2001   -0.6997    5.3951 C.ar    1  LIG11       0.0388
     15 C          -3.6132   -4.1412    3.9939 C.ar    1  LIG11       0.1007
     16 C          -4.0610    1.0637    4.1804 C.ar    1  LIG11      -0.0494
     17 C          -2.8807    0.3110    4.2334 C.ar    1  LIG11      -0.0541
     18 C          -5.2209    0.5524    4.7694 C.ar    1  LIG11      -0.0466
     19 C          -3.8298   -3.9790    5.4255 C.2     1  LIG11       0.2568
     20 C          -3.3195   -8.1236    4.6248 C.ar    1  LIG11       0.2399
     21 C          -2.9051   -5.0466    1.9507 C.ar    1  LIG11      -0.0273
     22 C          -2.8364   -9.3610    4.2621 C.ar    1  LIG11       0.0350
     23 C          -1.4968   -1.6292    4.9615 C.3     1  LIG11      -0.0379
     24 C          -6.4542   -1.2523    5.9749 C.2     1  LIG11       0.1619
     25 C          -3.9671  -10.0048    3.6881 C.ar    1  LIG11       0.0854
     26 C          -3.8406   -4.1310    1.5263 C.ar    1  LIG11      -0.0217
     27 C          -4.0980    2.3891    3.4767 C.3     1  LIG11      -0.0397
     28 C          -1.4807   -9.9232    4.4572 C.3     1  LIG11      -0.0330
     29 C          -4.0513  -11.3773    3.1341 C.3     1  LIG11      -0.0188
     30 C          -7.7499   -1.0058    5.2502 C.3     1  LIG11      -0.0013
@<TRIPOS>BOND
     1     1     4    2
     2     1     5    2
     3     1     9    1
     4     1    12    1
     5     2    15   ar
     6     2    26   ar
     7     3    10   ar
     8     3    20   ar
     9     6    19    2
    10     7    24    2
    11     8    11    1
    12     8    19   am
    13     9    20    1
    14    10    25   ar
    15    11    13   ar
    16    11    14   ar
    17    12    15   ar
    18    12    21   ar
    19    13    17   ar
    20    13    23    1
    21    14    18   ar
    22    14    24    1
    23    15    19    1
    24    16    17   ar
    25    16    18   ar
    26    16    27    1
    27    20    22   ar
    28    21    26   ar
    29    22    25   ar
    30    22    28    1
    31    24    30    1
    32    25    29    1
