@<TRIPOS>MOLECULE
BOSENTAN_50CONFORMERS.pdb
 39 42 0 0 0
SMALL
GASTEIGER

@<TRIPOS>ATOM
      1  S1        -2.4950   -1.6640    2.7060 S.O2    1  LGD1        0.0943
      2  O2        -1.8280   -2.9600    2.9280 O.2     1  LGD1       -0.1483
      3  O3        -2.6300   -0.6740    3.8170 O.2     1  LGD1       -0.1483
      4  O4        -2.4400   -2.7280   -0.3120 O.3     1  LGD1       -0.4427
      5  O5        -0.5670   -3.8500   -1.9550 O.3     1  LGD1       -0.4552
      6  O6        -3.3430   -5.0710   -1.0790 O.3     1  LGD1       -0.4684
      7  O7        -0.6190   -6.7140   -1.6740 O.3     1  LGD1       -0.2162
      8  N8        -1.7450   -0.7030    1.5030 N.pl3   1  LGD1       -0.0737
      9  N9         0.3410   -0.5650    0.4280 N.ar    1  LGD1       -0.2027
     10  N10        1.0150   -2.0850   -1.3990 N.ar    1  LGD1       -0.1866
     11  N11        2.2660    1.0560   -0.9540 N.ar    1  LGD1       -0.2224
     12  N12        3.6640   -0.9650   -0.6650 N.ar    1  LGD1       -0.2224
     13  C13       -7.8810   -2.3520    0.0430 C.3     1  LGD1        0.0189
     14  C14       -6.5210   -2.1950    0.7770 C.ar    1  LGD1       -0.0227
     15  C15       -7.5560   -2.0840   -1.4690 C.3     1  LGD1        0.0044
     16  C16       -8.9730   -1.3260    0.3920 C.3     1  LGD1        0.0044
     17  C17       -8.5580   -3.7770    0.2410 C.3     1  LGD1        0.0044
     18  C18       -5.9580   -0.9310    0.9160 C.ar    1  LGD1       -0.0029
     19  C19       -5.8060   -3.3480    1.2670 C.ar    1  LGD1       -0.0029
     20  C20       -4.0740   -1.8970    2.0760 C.ar    1  LGD1        0.1271
     21  C21       -4.8140   -0.7740    1.6480 C.ar    1  LGD1        0.0199
     22  C22       -4.6000   -3.1950    1.9900 C.ar    1  LGD1        0.0199
     23  C23       -0.9000   -1.1570    0.4960 C.ar    1  LGD1        0.2125
     24  C24       -1.1610   -2.1800   -0.4240 C.ar    1  LGD1        0.2327
     25  C25       -0.2000   -2.6770   -1.3180 C.ar    1  LGD1        0.2651
     26  C26        1.1990   -1.0610   -0.5240 C.ar    1  LGD1        0.2028
     27  C27       -3.2660   -2.7670   -1.4700 C.ar    1  LGD1        0.1793
     28  C28        2.5010   -0.2370   -0.6900 C.ar    1  LGD1        0.1990
     29  C29        0.3550   -4.7250   -2.5860 C.3     1  LGD1        0.2426
     30  C30       -3.7790   -3.9830   -1.8420 C.ar    1  LGD1        0.1730
     31  C31       -3.6140   -1.6070   -2.1710 C.ar    1  LGD1        0.0406
     32  C32       -4.5480   -4.1150   -3.0200 C.ar    1  LGD1        0.0401
     33  C33       -0.2100   -6.0720   -2.9320 C.3     1  LGD1        0.2292
     34  C34       -4.4240   -1.7250   -3.3040 C.ar    1  LGD1        0.0033
     35  C35       -4.8260   -2.9650   -3.7970 C.ar    1  LGD1        0.0033
     36  C36        3.3810    1.7740   -1.0240 C.ar    1  LGD1        0.1023
     37  C37        4.7480   -0.1910   -0.8150 C.ar    1  LGD1        0.1023
     38  C38        4.6280    1.1830   -1.0370 C.ar    1  LGD1        0.0414
     39  C39       -4.4370   -6.0020   -0.7570 C.3     1  LGD1        0.2526
@<TRIPOS>BOND
     1    33     7    1
     2    33    29    1
     3     5    29    1
     4     5    25    1
     5    10    25   ar
     6    10    26   ar
     7    36    11   ar
     8    36    38   ar
     9    11    28   ar
    10    25    24   ar
    11    38    37   ar
    12    34    31   ar
    13    34    35   ar
    14    28    26    1
    15    28    12   ar
    16    26     9   ar
    17    31    27   ar
    18    37    12   ar
    19    24     4    1
    20    24    23   ar
    21     4    27    1
    22    27    30   ar
    23    35    32   ar
    24    15    13    1
    25     9    23   ar
    26    23     8    1
    27    30    32   ar
    28    30     6    1
    29     6    39    1
    30     8     1    1
    31    18    14   ar
    32    18    21   ar
    33    13    14    1
    34    13    17    1
    35    13    16    1
    36    14    19   ar
    37    21    20   ar
    38    20     1    1
    39    20    22   ar
    40    19    22   ar
    41     1     2    2
    42     1     3    2
@<TRIPOS>MOLECULE
HTS1204-03362316-01
 44 47 0 0 0
SMALL
USER_CHARGES

@<TRIPOS>ATOM
      1 C1         -5.8446   -4.5213    1.2266 C.ar    1  UNK11      -0.0199
      2 N1         -7.0872   -2.8896    0.3398 N.ar    1  UNK11      -0.3494
      3 C2          1.2219   -5.9756    0.0455 C.2     1  UNK11       0.3028
      4 C3         -6.9948   -4.2401    0.5147 C.ar    1  UNK11       0.0086
      5 C4         -4.7217   -6.6981   -0.7481 C.2     1  UNK11       0.2342
      6 C5         -5.2296   -3.2585    1.5166 C.ar    1  UNK11       0.0031
      7 C6         -1.8324   -6.3253    1.1847 C.2     1  UNK11       0.2340
      8 C7         -6.0075   -2.2598    0.9185 C.ar    1  UNK11       0.0491
      9 N2          0.1644   -5.1401    0.3124 N.am    1  UNK11      -0.2879
     10 N3          1.8743   -5.6866   -1.1485 N.am    1  UNK11      -0.2856
     11 N4         -3.0349   -5.7471    0.8345 N.am    1  UNK11      -0.3022
     12 N5         -3.6693   -6.8483   -1.6249 N.am    1  UNK11      -0.3054
     13 C8         -4.2814   -6.5154    0.7192 C.3     1  UNK11       0.1034
     14 C9         -0.7213   -5.2958    1.4709 C.3     1  UNK11       0.1011
     15 C10        -3.8469   -7.0770   -3.0767 C.3     1  UNK11       0.0680
     16 C11        -5.3849   -5.9054    1.6077 C.3     1  UNK11       0.0013
     17 C12        -3.0066   -8.2841   -3.5850 C.2     1  UNK11       0.0623
     18 C13        -3.2522   -5.9301   -3.9090 C.3     1  UNK11       0.0133
     19 O1          1.5892   -6.8733    0.7965 O.2     1  UNK11      -0.2526
     20 O2         -1.6859   -7.5370    1.2880 O.2     1  UNK11      -0.2738
     21 O3         -5.9016   -6.8090   -1.0747 O.2     1  UNK11      -0.2738
     22 N6         -4.8478   -4.1034   -4.3097 N.ar    1  UNK11      -0.2598
     23 O4         -1.9756   -8.5237   -2.8823 O.co2   1  UNK11      -0.5479
     24 C14        -0.0120   -5.5720    2.8117 C.3     1  UNK11      -0.0236
     25 C15        -3.8176   -4.5718   -3.5628 C.ar    1  UNK11       0.0434
     26 O5         -3.4216   -8.8572   -4.6295 O.co2   1  UNK11      -0.5479
     27 C16        -8.1699   -2.2293   -0.3524 C.3     1  UNK11       0.0119
     28 C17         1.8024   -4.3848   -1.8196 C.3     1  UNK11       0.0161
     29 C18         2.7945   -6.6875   -1.6765 C.3     1  UNK11       0.0161
     30 C19        -5.6522   -0.9014    0.9660 C.ar    1  UNK11      -0.0376
     31 C20        -4.0716   -2.8680    2.2223 C.ar    1  UNK11      -0.0523
     32 C21        -0.8928   -5.3407    4.0654 C.3     1  UNK11      -0.0446
     33 C22        -5.3696   -2.9085   -3.9607 C.ar    1  UNK11       0.0279
     34 C23        -3.2779   -3.8430   -2.5001 C.ar    1  UNK11      -0.0403
     35 C24        -1.8714   -6.4886    4.3362 C.3     1  UNK11      -0.0626
     36 C25         0.0017   -5.1642    5.2965 C.3     1  UNK11      -0.0626
     37 C26         2.9767   -4.0492   -2.7449 C.3     1  UNK11      -0.0371
     38 C27         4.2490   -6.4468   -1.2672 C.3     1  UNK11      -0.0371
     39 C28        -3.7020   -1.5193    2.2680 C.ar    1  UNK11      -0.0611
     40 C29        -4.4804   -0.5515    1.6411 C.ar    1  UNK11      -0.0598
     41 C30        -4.9025   -2.1345   -2.9119 C.ar    1  UNK11      -0.0436
     42 C31        -3.8324   -2.6131   -2.1703 C.ar    1  UNK11      -0.0586
     43 C32         4.3496   -3.9869   -2.0704 C.3     1  UNK11      -0.0516
     44 C33         4.6203   -4.9969   -0.9572 C.3     1  UNK11      -0.0516
@<TRIPOS>BOND
     1     2     4   ar
     2     3     9   am
     3     1     4   ar
     4     5    13    1
     5     1     6   ar
     6     7    11   am
     7     6     8   ar
     8     9    14    1
     9     3    10   am
    10    11    13    1
    11     5    12   am
    12    13    16    1
    13     7    14    1
    14    12    15    1
    15     1    16    1
    16    15    17    1
    17    15    18    1
    18     3    19    2
    19     7    20    2
    20     5    21    2
    21    22    25   ar
    22    17    23   ar
    23    14    24    1
    24    18    25    1
    25    17    26   ar
    26     2    27    1
    27    10    28    1
    28    10    29    1
    29     8    30   ar
    30     6    31   ar
    31    24    32    1
    32    22    33   ar
    33    25    34   ar
    34    32    35    1
    35    32    36    1
    36    28    37    1
    37    29    38    1
    38    31    39   ar
    39    39    40   ar
    40    41    42   ar
    41    34    42   ar
    42    37    43    1
    43    38    44    1
    44     2     8   ar
    45    30    40   ar
    46    33    41   ar
    47    43    44    1
