@<TRIPOS>MOLECULE
BOSENTAN_50CONFORMERS.pdb
 39 42 0 0 0
SMALL
GASTEIGER

@<TRIPOS>ATOM
      1  S1        -1.4260    0.2990    2.6550 S.O2    1  LGD1        0.0943
      2  O2        -1.3660    1.6850    2.0670 O.2     1  LGD1       -0.1483
      3  O3        -2.5040    0.0830    3.6090 O.2     1  LGD1       -0.1483
      4  O4        -2.4800   -2.7380   -0.2590 O.3     1  LGD1       -0.4427
      5  O5        -0.5770   -3.7940   -2.0860 O.3     1  LGD1       -0.4552
      6  O6        -4.4040   -4.3140   -1.4350 O.3     1  LGD1       -0.4684
      7  O7        -0.6830   -3.4190   -5.2080 O.3     1  LGD1       -0.2162
      8  N8        -1.7390   -0.7410    1.4630 N.pl3   1  LGD1       -0.0737
      9  N9         0.3290   -0.4760    0.3600 N.ar    1  LGD1       -0.2027
     10  N10        1.0320   -2.1330   -1.3490 N.ar    1  LGD1       -0.1866
     11  N11        3.3330   -0.3710    0.5140 N.ar    1  LGD1       -0.2224
     12  N12        2.9120   -0.0740   -1.8800 N.ar    1  LGD1       -0.2224
     13  C13        4.0730   -0.6310    4.9900 C.3     1  LGD1        0.0189
     14  C14        2.6830   -0.3180    4.4560 C.ar    1  LGD1       -0.0227
     15  C15        4.3450    0.1670    6.3000 C.3     1  LGD1        0.0044
     16  C16        5.2120   -0.3690    4.0340 C.3     1  LGD1        0.0044
     17  C17        4.2790   -2.1100    5.3940 C.3     1  LGD1        0.0044
     18  C18        2.4730    0.6580    3.4640 C.ar    1  LGD1       -0.0029
     19  C19        1.5690   -1.0800    4.9960 C.ar    1  LGD1       -0.0029
     20  C20        0.2010    0.0220    3.3710 C.ar    1  LGD1        0.1271
     21  C21        1.2220    0.9110    2.9330 C.ar    1  LGD1        0.0199
     22  C22        0.2890   -0.9180    4.3910 C.ar    1  LGD1        0.0199
     23  C23       -0.8570   -1.1340    0.4950 C.ar    1  LGD1        0.2125
     24  C24       -1.1820   -2.2180   -0.3340 C.ar    1  LGD1        0.2327
     25  C25       -0.2190   -2.7190   -1.2290 C.ar    1  LGD1        0.2651
     26  C26        1.1960   -1.0610   -0.5120 C.ar    1  LGD1        0.2028
     27  C27       -2.6980   -4.0420    0.2520 C.ar    1  LGD1        0.1793
     28  C28        2.5860   -0.4180   -0.6440 C.ar    1  LGD1        0.1990
     29  C29        0.2990   -4.1530   -3.1820 C.3     1  LGD1        0.2426
     30  C30       -3.8060   -4.7870   -0.2170 C.ar    1  LGD1        0.1730
     31  C31       -1.9880   -4.4760    1.4260 C.ar    1  LGD1        0.0406
     32  C32       -4.1190   -6.0000    0.3710 C.ar    1  LGD1        0.0401
     33  C33        0.4040   -3.1370   -4.3570 C.3     1  LGD1        0.2292
     34  C34       -2.4310   -5.6940    1.9980 C.ar    1  LGD1        0.0033
     35  C35       -3.4770   -6.4420    1.4700 C.ar    1  LGD1        0.0033
     36  C36        4.5340    0.3080    0.4370 C.ar    1  LGD1        0.1023
     37  C37        4.1350    0.4620   -1.9690 C.ar    1  LGD1        0.1023
     38  C38        4.9330    0.6470   -0.8390 C.ar    1  LGD1        0.0414
     39  C39       -3.9480   -5.2130   -2.5330 C.3     1  LGD1        0.2526
@<TRIPOS>BOND
     1    33     7    1
     2    33    29    1
     3     5    29    1
     4     5    25    1
     5    10    25   ar
     6    10    26   ar
     7    36    11   ar
     8    36    38   ar
     9    11    28   ar
    10    25    24   ar
    11    38    37   ar
    12    34    31   ar
    13    34    35   ar
    14    28    26    1
    15    28    12   ar
    16    26     9   ar
    17    31    27   ar
    18    37    12   ar
    19    24     4    1
    20    24    23   ar
    21     4    27    1
    22    27    30   ar
    23    35    32   ar
    24    15    13    1
    25     9    23   ar
    26    23     8    1
    27    30    32   ar
    28    30     6    1
    29     6    39    1
    30     8     1    1
    31    18    14   ar
    32    18    21   ar
    33    13    14    1
    34    13    17    1
    35    13    16    1
    36    14    19   ar
    37    21    20   ar
    38    20     1    1
    39    20    22   ar
    40    19    22   ar
    41     1     2    2
    42     1     3    2
@<TRIPOS>MOLECULE
9939443
 43 47 0 0 0
SMALL
GASTEIGER

@<TRIPOS>ATOM
      1 S          -1.5479   -0.0018    2.2868 S.O2    1  LIG11       0.0908
      2 O          -2.1746   -2.5184   -0.0572 O.3     1  LIG11      -0.4435
      3 O          -2.3874   -1.1362    2.6031 O.2     1  LIG11      -0.1484
      4 O          -1.9452    1.3343    2.6990 O.2     1  LIG11      -0.1484
      5 O          -0.0680   -4.1400   -1.4222 O.3     1  LIG11      -0.4715
      6 O          -4.7510   -3.4970   -0.4274 O.3     1  LIG11      -0.4914
      7 O          -1.3243   -2.0011   -3.3854 O.3     1  LIG11      -0.3917
      8 N          -1.3417    0.1067    0.6100 N.pl3   1  LIG11      -0.1950
      9 N           0.5489   -1.5718    2.7941 N.ar    1  LIG11      -0.2351
     10 N           0.7397   -0.3643   -0.1339 N.ar    1  LIG11      -0.2073
     11 N           1.3846   -2.4608   -1.0322 N.ar    1  LIG11      -0.1899
     12 N           5.7593    0.0536   -0.4500 N.ar    1  LIG11      -0.2552
     13 N           6.3660    2.6733    0.6253 N.ar    1  LIG11      -0.5621
     14 N           4.2526    2.8589    1.4083 N.ar    1  LIG11      -0.1535
     15 N           6.1445    3.7799    1.3440 N.ar    1  LIG11      -0.3597
     16 N           4.9085    3.9284    1.8335 N.ar    1  LIG11      -0.0878
     17 C           4.0077   -1.2567    4.3103 C.3     1  LIG11      -0.0201
     18 C           2.6293   -0.8525    3.8260 C.ar    1  LIG11      -0.0266
     19 C           5.0668   -0.1593    4.1728 C.3     1  LIG11      -0.0586
     20 C           3.9352   -1.7478    5.7579 C.3     1  LIG11      -0.0586
     21 C           0.0992   -0.2970    2.9462 C.ar    1  LIG11       0.1969
     22 C           2.1098    0.4410    3.9707 C.ar    1  LIG11      -0.0535
     23 C           1.7986   -1.8126    3.2429 C.ar    1  LIG11       0.0332
     24 C           0.8227    0.7324    3.5244 C.ar    1  LIG11      -0.0160
     25 C          -0.4952   -0.8663    0.0215 C.ar    1  LIG11       0.1882
     26 C          -0.8824   -2.1566   -0.2776 C.ar    1  LIG11       0.2307
     27 C           0.1056   -2.8861   -0.9076 C.ar    1  LIG11       0.2641
     28 C           1.6571   -1.2191   -0.6057 C.ar    1  LIG11       0.1659
     29 C           3.0639   -0.7795   -0.5778 C.ar    1  LIG11       0.0227
     30 C          -2.4944   -3.7371    0.4972 C.ar    1  LIG11       0.1702
     31 C           3.4293    0.4486    0.0011 C.ar    1  LIG11      -0.0252
     32 C           4.0981   -1.5741   -1.0872 C.ar    1  LIG11      -0.0328
     33 C          -1.0271   -4.2383   -2.4852 C.3     1  LIG11       0.1143
     34 C          -3.7974   -4.2064    0.2610 C.ar    1  LIG11       0.1621
     35 C           4.7671    0.8318    0.0497 C.ar    1  LIG11       0.0708
     36 C          -1.6212   -4.5156    1.2632 C.ar    1  LIG11      -0.0157
     37 C           5.4051   -1.1234   -1.0033 C.ar    1  LIG11       0.0289
     38 C          -0.7870   -3.2934   -3.6648 C.3     1  LIG11       0.0783
     39 C          -4.1725   -5.4871    0.6701 C.ar    1  LIG11      -0.0163
     40 C          -2.0091   -5.7888    1.6927 C.ar    1  LIG11      -0.0581
     41 C          -3.2758   -6.2813    1.3812 C.ar    1  LIG11      -0.0581
     42 C           5.1462    2.1022    0.6740 C.ar    1  LIG11       0.0207
     43 C          -5.0115   -2.2235    0.1699 C.3     1  LIG11       0.0790
@<TRIPOS>BOND
     1     1    21    1
     2     1     8    1
     3     1     4    2
     4     1     3    2
     5     2    26    1
     6     2    30    1
     7     5    27    1
     8     5    33    1
     9     6    34    1
    10     6    43    1
    11     7    38    1
    12     8    25    1
    13     9    23   ar
    14     9    21   ar
    15    10    25   ar
    16    10    28   ar
    17    11    27   ar
    18    11    28   ar
    19    12    37   ar
    20    12    35   ar
    21    13    15   ar
    22    13    42   ar
    23    14    42   ar
    24    14    16   ar
    25    15    16   ar
    26    17    18    1
    27    17    20    1
    28    17    19    1
    29    18    23   ar
    30    18    22   ar
    31    21    24   ar
    32    22    24   ar
    33    25    26   ar
    34    26    27   ar
    35    28    29    1
    36    29    31   ar
    37    29    32   ar
    38    30    36   ar
    39    30    34   ar
    40    31    35   ar
    41    32    37   ar
    42    33    38    1
    43    34    39   ar
    44    35    42    1
    45    36    40   ar
    46    39    41   ar
    47    40    41   ar
