@<TRIPOS>MOLECULE
BOSENTAN_50CONFORMERS.pdb
 39 42 0 0 0
SMALL
GASTEIGER

@<TRIPOS>ATOM
      1  S1        -1.8180   -1.3040    2.9190 S.O2    1  LGD1        0.0943
      2  O2        -0.9920   -2.5570    2.9330 O.2     1  LGD1       -0.1483
      3  O3        -1.4650   -0.1430    3.7450 O.2     1  LGD1       -0.1483
      4  O4        -2.3310   -3.0270   -0.0390 O.3     1  LGD1       -0.4427
      5  O5        -0.6020   -3.7280   -2.1830 O.3     1  LGD1       -0.4552
      6  O6        -4.1150   -5.1070    0.4720 O.3     1  LGD1       -0.4684
      7  O7        -0.9090   -4.8850   -4.9210 O.3     1  LGD1       -0.2162
      8  N8        -1.7480   -0.6300    1.4370 N.pl3   1  LGD1       -0.0737
      9  N9         0.3020   -0.4620    0.3810 N.ar    1  LGD1       -0.2027
     10  N10        0.9970   -2.1480   -1.3370 N.ar    1  LGD1       -0.1866
     11  N11        3.5020   -1.0990   -1.3780 N.ar    1  LGD1       -0.2224
     12  N12        2.5760    1.0050   -0.3820 N.ar    1  LGD1       -0.2224
     13  C13       -7.6460   -2.5010    3.4520 C.3     1  LGD1        0.0189
     14  C14       -6.1720   -2.2500    3.4930 C.ar    1  LGD1       -0.0227
     15  C15       -8.1790   -3.1380    4.7720 C.3     1  LGD1        0.0044
     16  C16       -8.1490   -3.4190    2.3450 C.3     1  LGD1        0.0044
     17  C17       -8.4710   -1.1970    3.2640 C.3     1  LGD1        0.0044
     18  C18       -5.6910   -0.9060    3.6680 C.ar    1  LGD1       -0.0029
     19  C19       -5.2300   -3.2730    3.3020 C.ar    1  LGD1       -0.0029
     20  C20       -3.4820   -1.6820    3.1470 C.ar    1  LGD1        0.1271
     21  C21       -4.3560   -0.6650    3.4890 C.ar    1  LGD1        0.0199
     22  C22       -3.8960   -3.0260    3.1370 C.ar    1  LGD1        0.0199
     23  C23       -0.8590   -1.1860    0.5180 C.ar    1  LGD1        0.2125
     24  C24       -1.1020   -2.2760   -0.2810 C.ar    1  LGD1        0.2327
     25  C25       -0.2010   -2.8410   -1.2110 C.ar    1  LGD1        0.2651
     26  C26        1.1950   -1.0050   -0.5160 C.ar    1  LGD1        0.2028
     27  C27       -3.6420   -2.8750   -0.5670 C.ar    1  LGD1        0.1793
     28  C28        2.5410   -0.2840   -0.7530 C.ar    1  LGD1        0.1990
     29  C29        0.4000   -4.4230   -2.9050 C.3     1  LGD1        0.2426
     30  C30       -4.5000   -3.9550   -0.2560 C.ar    1  LGD1        0.1730
     31  C31       -4.1300   -1.7550   -1.1030 C.ar    1  LGD1        0.0406
     32  C32       -5.8420   -3.8550   -0.7160 C.ar    1  LGD1        0.0401
     33  C33       -0.2710   -5.4790   -3.7750 C.3     1  LGD1        0.2292
     34  C34       -5.4460   -1.5930   -1.4810 C.ar    1  LGD1        0.0033
     35  C35       -6.2900   -2.6930   -1.3690 C.ar    1  LGD1        0.0033
     36  C36        4.6880   -0.4610   -1.6420 C.ar    1  LGD1        0.1023
     37  C37        3.7540    1.6380   -0.6350 C.ar    1  LGD1        0.1023
     38  C38        4.7630    0.8970   -1.2550 C.ar    1  LGD1        0.0414
     39  C39       -4.0070   -6.2920   -0.3130 C.3     1  LGD1        0.2526
@<TRIPOS>BOND
     1    33     7    1
     2    33    29    1
     3     5    29    1
     4     5    25    1
     5    10    25   ar
     6    10    26   ar
     7    36    11   ar
     8    36    38   ar
     9    11    28   ar
    10    25    24   ar
    11    38    37   ar
    12    34    31   ar
    13    34    35   ar
    14    28    26    1
    15    28    12   ar
    16    26     9   ar
    17    31    27   ar
    18    37    12   ar
    19    24     4    1
    20    24    23   ar
    21     4    27    1
    22    27    30   ar
    23    35    32   ar
    24    15    13    1
    25     9    23   ar
    26    23     8    1
    27    30    32   ar
    28    30     6    1
    29     6    39    1
    30     8     1    1
    31    18    14   ar
    32    18    21   ar
    33    13    14    1
    34    13    17    1
    35    13    16    1
    36    14    19   ar
    37    21    20   ar
    38    20     1    1
    39    20    22   ar
    40    19    22   ar
    41     1     2    2
    42     1     3    2
@<TRIPOS>MOLECULE
HTS1204-03362316-01
 44 47 0 0 0
SMALL
USER_CHARGES

@<TRIPOS>ATOM
      1 C1         -5.3340   -4.4463    3.6017 C.ar    1  UNK11      -0.0199
      2 N1         -6.7804   -2.7823    3.2388 N.ar    1  UNK11      -0.3494
      3 C2          0.4818   -6.3377   -0.4040 C.2     1  UNK11       0.3028
      4 C3         -6.6682   -4.1283    3.4356 C.ar    1  UNK11       0.0086
      5 C4         -5.2457   -6.7556    1.4666 C.2     1  UNK11       0.2342
      6 C5         -4.6111   -3.2099    3.5265 C.ar    1  UNK11       0.0031
      7 C6         -1.7950   -6.4725    1.9512 C.2     1  UNK11       0.2340
      8 C7         -5.5359   -2.1925    3.2620 C.ar    1  UNK11       0.0491
      9 N2         -0.3285   -5.4347    0.2409 N.am    1  UNK11      -0.2879
     10 N3          0.5664   -6.1309   -1.7769 N.am    1  UNK11      -0.2856
     11 N4         -3.0104   -5.8415    2.1165 N.am    1  UNK11      -0.3022
     12 N5         -4.6789   -6.9975    0.2340 N.am    1  UNK11      -0.3054
     13 C8         -4.2109   -6.5426    2.5908 C.3     1  UNK11       0.1034
     14 C9         -0.6343   -5.4968    1.6739 C.3     1  UNK11       0.1011
     15 C10        -5.4717   -7.2705   -0.9860 C.3     1  UNK11       0.0680
     16 C11        -4.8029   -5.8386    3.8291 C.3     1  UNK11       0.0013
     17 C12        -4.9740   -8.5411   -1.7339 C.2     1  UNK11       0.0623
     18 C13        -5.2541   -6.1909   -2.0579 C.3     1  UNK11       0.0133
     19 O1          1.1055   -7.2255    0.1683 O.2     1  UNK11      -0.2526
     20 O2         -1.6600   -7.6858    2.0521 O.2     1  UNK11      -0.2738
     21 O3         -6.4544   -6.8125    1.6835 O.2     1  UNK11      -0.2738
     22 N6         -6.8031   -4.2942   -1.8424 N.ar    1  UNK11      -0.2598
     23 O4         -3.7499   -8.8114   -1.5276 O.co2   1  UNK11      -0.5479
     24 C14         0.5731   -5.7615    2.5956 C.3     1  UNK11      -0.0236
     25 C15        -5.5684   -4.7910   -1.5826 C.ar    1  UNK11       0.0434
     26 O5         -5.8175   -9.1291   -2.4650 O.co2   1  UNK11      -0.5479
     27 C16        -8.0322   -2.0890    3.0397 C.3     1  UNK11       0.0119
     28 C17         0.2575   -4.8533   -2.4270 C.3     1  UNK11       0.0161
     29 C18         1.1348   -7.2010   -2.5888 C.3     1  UNK11       0.0161
     30 C19        -5.1482   -0.8554    3.0738 C.ar    1  UNK11      -0.0376
     31 C20        -3.2495   -2.8585    3.6446 C.ar    1  UNK11      -0.0523
     32 C21         0.3260   -5.4341    4.0898 C.3     1  UNK11      -0.0446
     33 C22        -7.0824   -3.0596   -1.3738 C.ar    1  UNK11       0.0279
     34 C23        -4.5993   -4.0540   -0.8975 C.ar    1  UNK11      -0.0403
     35 C24        -0.4795   -6.5143    4.8197 C.3     1  UNK11      -0.0626
     36 C25         1.6688   -5.2616    4.8069 C.3     1  UNK11      -0.0626
     37 C26         0.9300   -4.6192   -3.7837 C.3     1  UNK11      -0.0371
     38 C27         2.6312   -7.0269   -2.8562 C.3     1  UNK11      -0.0371
     39 C28        -2.8501   -1.5319    3.4492 C.ar    1  UNK11      -0.0611
     40 C29        -3.7887   -0.5464    3.1607 C.ar    1  UNK11      -0.0598
     41 C30        -6.1832   -2.2740   -0.6729 C.ar    1  UNK11      -0.0436
     42 C31        -4.9153   -2.7834   -0.4342 C.ar    1  UNK11      -0.0586
     43 C32         2.4608   -4.6085   -3.7667 C.3     1  UNK11      -0.0516
     44 C33         3.1493   -5.5894   -2.8198 C.3     1  UNK11      -0.0516
@<TRIPOS>BOND
     1     2     4   ar
     2     3     9   am
     3     1     4   ar
     4     5    13    1
     5     1     6   ar
     6     7    11   am
     7     6     8   ar
     8     9    14    1
     9     3    10   am
    10    11    13    1
    11     5    12   am
    12    13    16    1
    13     7    14    1
    14    12    15    1
    15     1    16    1
    16    15    17    1
    17    15    18    1
    18     3    19    2
    19     7    20    2
    20     5    21    2
    21    22    25   ar
    22    17    23   ar
    23    14    24    1
    24    18    25    1
    25    17    26   ar
    26     2    27    1
    27    10    28    1
    28    10    29    1
    29     8    30   ar
    30     6    31   ar
    31    24    32    1
    32    22    33   ar
    33    25    34   ar
    34    32    35    1
    35    32    36    1
    36    28    37    1
    37    29    38    1
    38    31    39   ar
    39    39    40   ar
    40    41    42   ar
    41    34    42   ar
    42    37    43    1
    43    38    44    1
    44     2     8   ar
    45    30    40   ar
    46    33    41   ar
    47    43    44    1
