@<TRIPOS>MOLECULE
BOSENTAN_50CONFORMERS.pdb
 39 42 0 0 0
SMALL
GASTEIGER

@<TRIPOS>ATOM
      1  S1        -1.4500   -0.6630    3.1040 S.O2    1  LGD1        0.0943
      2  O2        -2.6340   -0.0340    3.7890 O.2     1  LGD1       -0.1483
      3  O3        -1.0680   -2.0450    3.4680 O.2     1  LGD1       -0.1483
      4  O4        -2.3050   -3.0050   -0.0740 O.3     1  LGD1       -0.4427
      5  O5        -0.5280   -3.7580   -2.0570 O.3     1  LGD1       -0.4552
      6  O6        -4.2850   -4.4840   -1.1950 O.3     1  LGD1       -0.4684
      7  O7        -0.7790   -5.8310   -3.9760 O.3     1  LGD1       -0.2162
      8  N8        -1.8070   -0.7120    1.4680 N.pl3   1  LGD1       -0.0737
      9  N9         0.3490   -0.5270    0.3280 N.ar    1  LGD1       -0.2027
     10  N10        0.9840   -2.1170   -1.3650 N.ar    1  LGD1       -0.1866
     11  N11        3.6890   -1.1270   -0.3700 N.ar    1  LGD1       -0.2224
     12  N12        2.4340    0.9180   -0.9610 N.ar    1  LGD1       -0.2224
     13  C13        3.3520    3.1700    3.6310 C.3     1  LGD1        0.0189
     14  C14        2.0970    2.1990    3.4970 C.ar    1  LGD1       -0.0227
     15  C15        3.2200    4.5680    2.9870 C.3     1  LGD1        0.0044
     16  C16        4.6100    2.4940    3.1580 C.3     1  LGD1        0.0044
     17  C17        3.5000    3.4150    5.1750 C.3     1  LGD1        0.0044
     18  C18        2.2540    0.8230    3.4960 C.ar    1  LGD1       -0.0029
     19  C19        0.7890    2.7170    3.4790 C.ar    1  LGD1       -0.0029
     20  C20       -0.0790    0.4450    3.2580 C.ar    1  LGD1        0.1271
     21  C21        1.2060   -0.0650    3.3940 C.ar    1  LGD1        0.0199
     22  C22       -0.3180    1.7960    3.3420 C.ar    1  LGD1        0.0199
     23  C23       -0.8770   -1.1090    0.5050 C.ar    1  LGD1        0.2125
     24  C24       -1.1270   -2.2590   -0.2630 C.ar    1  LGD1        0.2327
     25  C25       -0.2440   -2.6810   -1.2850 C.ar    1  LGD1        0.2651
     26  C26        1.2320   -1.1140   -0.5220 C.ar    1  LGD1        0.2028
     27  C27       -2.3420   -4.3700    0.1560 C.ar    1  LGD1        0.1793
     28  C28        2.5870   -0.4010   -0.6530 C.ar    1  LGD1        0.1990
     29  C29        0.4570   -4.8040   -2.0840 C.3     1  LGD1        0.2426
     30  C30       -3.3240   -5.1070   -0.4960 C.ar    1  LGD1        0.1730
     31  C31       -1.3000   -4.9920    0.8410 C.ar    1  LGD1        0.0406
     32  C32       -3.3500   -6.5060   -0.3710 C.ar    1  LGD1        0.0401
     33  C33       -0.1850   -6.0530   -2.7100 C.3     1  LGD1        0.2292
     34  C34       -1.2740   -6.3830    0.8710 C.ar    1  LGD1        0.0033
     35  C35       -2.3040   -7.1390    0.2650 C.ar    1  LGD1        0.0033
     36  C36        4.7800   -0.3460   -0.2310 C.ar    1  LGD1        0.1023
     37  C37        3.5710    1.6670   -0.8680 C.ar    1  LGD1        0.1023
     38  C38        4.7460    1.0330   -0.4740 C.ar    1  LGD1        0.0414
     39  C39       -3.9940   -3.9950   -2.5260 C.3     1  LGD1        0.2526
@<TRIPOS>BOND
     1    33     7    1
     2    33    29    1
     3     5    29    1
     4     5    25    1
     5    10    25   ar
     6    10    26   ar
     7    36    11   ar
     8    36    38   ar
     9    11    28   ar
    10    25    24   ar
    11    38    37   ar
    12    34    31   ar
    13    34    35   ar
    14    28    26    1
    15    28    12   ar
    16    26     9   ar
    17    31    27   ar
    18    37    12   ar
    19    24     4    1
    20    24    23   ar
    21     4    27    1
    22    27    30   ar
    23    35    32   ar
    24    15    13    1
    25     9    23   ar
    26    23     8    1
    27    30    32   ar
    28    30     6    1
    29     6    39    1
    30     8     1    1
    31    18    14   ar
    32    18    21   ar
    33    13    14    1
    34    13    17    1
    35    13    16    1
    36    14    19   ar
    37    21    20   ar
    38    20     1    1
    39    20    22   ar
    40    19    22   ar
    41     1     2    2
    42     1     3    2
@<TRIPOS>MOLECULE
9939443
 43 47 0 0 0
SMALL
GASTEIGER

@<TRIPOS>ATOM
      1 S          -1.2203   -0.6780    2.8835 S.O2    1  LIG11       0.0908
      2 O          -1.1362   -3.6008    1.1634 O.3     1  LIG11      -0.4435
      3 O          -0.8040   -1.9675    3.4113 O.2     1  LIG11      -0.1484
      4 O          -2.4349   -0.0473    3.3673 O.2     1  LIG11      -0.1484
      5 O           0.8657   -4.6360   -0.7031 O.3     1  LIG11      -0.4715
      6 O          -3.8349   -3.1559    0.8677 O.3     1  LIG11      -0.4914
      7 O          -0.5154   -4.7860   -3.3415 O.3     1  LIG11      -0.3917
      8 N          -1.3175   -0.7462    1.1994 N.pl3   1  LIG11      -0.1950
      9 N           0.0435    1.6261    2.4553 N.ar    1  LIG11      -0.2351
     10 N           0.6692   -0.6297    0.0900 N.ar    1  LIG11      -0.2073
     11 N           1.7350   -2.5123   -0.8522 N.ar    1  LIG11      -0.1899
     12 N           5.2391    1.0406   -1.4428 N.ar    1  LIG11      -0.2552
     13 N           5.3507    3.8225   -0.7221 N.ar    1  LIG11      -0.5621
     14 N           3.0929    3.9333   -0.7929 N.ar    1  LIG11      -0.1535
     15 N           4.8642    5.0655   -0.6479 N.ar    1  LIG11      -0.3597
     16 N           3.5317    5.1791   -0.6777 N.ar    1  LIG11      -0.0878
     17 C           3.1457    3.3783    3.8952 C.3     1  LIG11      -0.0201
     18 C           2.0727    2.3430    3.5999 C.ar    1  LIG11      -0.0266
     19 C           3.1723    4.5807    2.9499 C.3     1  LIG11      -0.0586
     20 C           3.0348    3.8831    5.3396 C.3     1  LIG11      -0.0586
     21 C           0.1177    0.4776    3.1758 C.ar    1  LIG11       0.1969
     22 C           2.1166    1.1101    4.2717 C.ar    1  LIG11      -0.0535
     23 C           1.0214    2.5350    2.6988 C.ar    1  LIG11       0.0332
     24 C           1.1252    0.1589    4.0693 C.ar    1  LIG11      -0.0160
     25 C          -0.2850   -1.4679    0.5416 C.ar    1  LIG11       0.1882
     26 C          -0.2943   -2.8493    0.3868 C.ar    1  LIG11       0.2307
     27 C           0.7310   -3.3024   -0.4169 C.ar    1  LIG11       0.2641
     28 C           1.6849   -1.2074   -0.5593 C.ar    1  LIG11       0.1659
     29 C           2.8815   -0.4102   -0.8896 C.ar    1  LIG11       0.0227
     30 C          -1.9228   -4.5771    0.6060 C.ar    1  LIG11       0.1702
     31 C           2.9365    0.9811   -0.7113 C.ar    1  LIG11      -0.0252
     32 C           4.0449   -1.0382   -1.3681 C.ar    1  LIG11      -0.0328
     33 C           1.4742   -4.9183   -1.9750 C.3     1  LIG11       0.1143
     34 C          -3.2991   -4.3606    0.4895 C.ar    1  LIG11       0.1621
     35 C           4.1187    1.6665   -0.9964 C.ar    1  LIG11       0.0708
     36 C          -1.4334   -5.8715    0.4206 C.ar    1  LIG11      -0.0157
     37 C           5.1776   -0.2887   -1.6228 C.ar    1  LIG11       0.0289
     38 C           0.4839   -5.6787   -2.8543 C.3     1  LIG11       0.0783
     39 C          -4.1458   -5.3749    0.0317 C.ar    1  LIG11      -0.0163
     40 C          -2.2742   -6.8933   -0.0290 C.ar    1  LIG11      -0.0581
     41 C          -3.6280   -6.6405   -0.2403 C.ar    1  LIG11      -0.0581
     42 C           4.2058    3.1184   -0.8366 C.ar    1  LIG11       0.0207
     43 C          -4.4704   -3.2901    2.1446 C.3     1  LIG11       0.0790
@<TRIPOS>BOND
     1     1    21    1
     2     1     8    1
     3     1     4    2
     4     1     3    2
     5     2    26    1
     6     2    30    1
     7     5    27    1
     8     5    33    1
     9     6    34    1
    10     6    43    1
    11     7    38    1
    12     8    25    1
    13     9    23   ar
    14     9    21   ar
    15    10    25   ar
    16    10    28   ar
    17    11    27   ar
    18    11    28   ar
    19    12    37   ar
    20    12    35   ar
    21    13    15   ar
    22    13    42   ar
    23    14    42   ar
    24    14    16   ar
    25    15    16   ar
    26    17    18    1
    27    17    20    1
    28    17    19    1
    29    18    23   ar
    30    18    22   ar
    31    21    24   ar
    32    22    24   ar
    33    25    26   ar
    34    26    27   ar
    35    28    29    1
    36    29    31   ar
    37    29    32   ar
    38    30    36   ar
    39    30    34   ar
    40    31    35   ar
    41    32    37   ar
    42    33    38    1
    43    34    39   ar
    44    35    42    1
    45    36    40   ar
    46    39    41   ar
    47    40    41   ar
