@<TRIPOS>MOLECULE
BOSENTAN_50CONFORMERS.pdb
 39 42 0 0 0
SMALL
GASTEIGER

@<TRIPOS>ATOM
      1  S1        -1.6410    0.6860    2.4560 S.O2    1  LGD1        0.0943
      2  O2        -1.3520    1.8340    1.5570 O.2     1  LGD1       -0.1483
      3  O3        -2.8280    0.6310    3.3500 O.2     1  LGD1       -0.1483
      4  O4        -2.5220   -2.6610   -0.2930 O.3     1  LGD1       -0.4427
      5  O5        -0.5450   -3.8450   -2.0380 O.3     1  LGD1       -0.4552
      6  O6        -5.1660   -2.9260    0.7860 O.3     1  LGD1       -0.4684
      7  O7         0.0380   -6.7410   -2.8450 O.3     1  LGD1       -0.2162
      8  N8        -1.7810   -0.7390    1.4900 N.pl3   1  LGD1       -0.0737
      9  N9         0.3880   -0.5790    0.3990 N.ar    1  LGD1       -0.2027
     10  N10        1.0090   -2.0750   -1.3690 N.ar    1  LGD1       -0.1866
     11  N11        3.4500   -0.9450   -1.4270 N.ar    1  LGD1       -0.2224
     12  N12        2.6080    0.9490   -0.1290 N.ar    1  LGD1       -0.2224
     13  C13        3.0060   -0.4140    6.2670 C.3     1  LGD1        0.0189
     14  C14        1.7960   -0.2250    5.3460 C.ar    1  LGD1       -0.0227
     15  C15        3.6020    0.8790    6.7690 C.3     1  LGD1        0.0044
     16  C16        4.0990   -1.2220    5.5180 C.3     1  LGD1        0.0044
     17  C17        2.7020   -1.3170    7.5110 C.3     1  LGD1        0.0044
     18  C18        0.5860   -0.9460    5.4420 C.ar    1  LGD1       -0.0029
     19  C19        1.9640    0.7150    4.2860 C.ar    1  LGD1       -0.0029
     20  C20       -0.2480    0.3390    3.5910 C.ar    1  LGD1        0.1271
     21  C21       -0.4380   -0.6670    4.5460 C.ar    1  LGD1        0.0199
     22  C22        0.9140    1.0760    3.4700 C.ar    1  LGD1        0.0199
     23  C23       -0.8660   -1.1160    0.4880 C.ar    1  LGD1        0.2125
     24  C24       -1.2140   -2.1850   -0.3940 C.ar    1  LGD1        0.2327
     25  C25       -0.2410   -2.7090   -1.2100 C.ar    1  LGD1        0.2651
     26  C26        1.2320   -1.0290   -0.5570 C.ar    1  LGD1        0.2028
     27  C27       -3.6100   -1.9910   -0.8550 C.ar    1  LGD1        0.1793
     28  C28        2.5120   -0.2650   -0.7460 C.ar    1  LGD1        0.1990
     29  C29        0.5500   -4.2720   -2.9720 C.3     1  LGD1        0.2426
     30  C30       -4.8960   -2.1580   -0.3670 C.ar    1  LGD1        0.1730
     31  C31       -3.4260   -0.9480   -1.7950 C.ar    1  LGD1        0.0406
     32  C32       -5.9660   -1.4110   -0.8700 C.ar    1  LGD1        0.0401
     33  C33        0.2550   -5.6500   -3.6940 C.3     1  LGD1        0.2292
     34  C34       -4.4950   -0.1990   -2.2740 C.ar    1  LGD1        0.0033
     35  C35       -5.7700   -0.4310   -1.8670 C.ar    1  LGD1        0.0033
     36  C36        4.6630   -0.3400   -1.5250 C.ar    1  LGD1        0.1023
     37  C37        3.8560    1.4910   -0.1510 C.ar    1  LGD1        0.1023
     38  C38        4.8320    0.8620   -0.8950 C.ar    1  LGD1        0.0414
     39  C39       -5.6290   -4.2950    0.5660 C.3     1  LGD1        0.2526
@<TRIPOS>BOND
     1    33     7    1
     2    33    29    1
     3     5    29    1
     4     5    25    1
     5    10    25   ar
     6    10    26   ar
     7    36    11   ar
     8    36    38   ar
     9    11    28   ar
    10    25    24   ar
    11    38    37   ar
    12    34    31   ar
    13    34    35   ar
    14    28    26    1
    15    28    12   ar
    16    26     9   ar
    17    31    27   ar
    18    37    12   ar
    19    24     4    1
    20    24    23   ar
    21     4    27    1
    22    27    30   ar
    23    35    32   ar
    24    15    13    1
    25     9    23   ar
    26    23     8    1
    27    30    32   ar
    28    30     6    1
    29     6    39    1
    30     8     1    1
    31    18    14   ar
    32    18    21   ar
    33    13    14    1
    34    13    17    1
    35    13    16    1
    36    14    19   ar
    37    21    20   ar
    38    20     1    1
    39    20    22   ar
    40    19    22   ar
    41     1     2    2
    42     1     3    2
@<TRIPOS>MOLECULE
9957262
 35 38 0 0 0
SMALL
GASTEIGER

@<TRIPOS>ATOM
      1 S          -0.8129   -4.1025    1.7218 S.O2    1  LIG11       0.0668
      2 O          -2.8355   -2.1254   -0.3439 O.3     1  LIG11      -0.4435
      3 O          -2.3188    0.6841   -0.5409 O.3     1  LIG11      -0.4771
      4 O          -0.3986   -5.4790    1.9018 O.2     1  LIG11      -0.1505
      5 O          -2.1875   -3.7443    2.0185 O.2     1  LIG11      -0.1505
      6 O          -2.3652   -1.9372   -3.1024 O.3     1  LIG11      -0.4914
      7 N          -0.5963   -3.7725    0.0698 N.pl3   1  LIG11      -0.1968
      8 N           0.7849   -1.9677   -0.2618 N.ar    1  LIG11      -0.2044
      9 N          -0.0196    0.2442   -0.5807 N.ar    1  LIG11      -0.1867
     10 N           3.3698   -1.0946   -0.7721 N.ar    1  LIG11      -0.2331
     11 N           2.6101    1.1662   -0.6747 N.ar    1  LIG11      -0.2331
     12 C          -0.4897   -2.3835   -0.2379 C.ar    1  LIG11       0.1883
     13 C          -1.5895   -1.5664   -0.3913 C.ar    1  LIG11       0.2307
     14 C          -1.2814   -0.2276   -0.5200 C.ar    1  LIG11       0.2639
     15 C          -3.7915   -1.6766   -1.2299 C.ar    1  LIG11       0.1702
     16 C           0.2725   -3.0838    2.6185 C.2     1  LIG11       0.0729
     17 C           0.9842   -0.6530   -0.4778 C.ar    1  LIG11       0.2027
     18 C          -3.5890   -1.5573   -2.6161 C.ar    1  LIG11       0.1621
     19 C          -0.2196   -2.0387    3.3045 C.2     1  LIG11      -0.0353
     20 C           0.5721   -1.0688    4.0746 C.ar    1  LIG11      -0.0237
     21 C          -5.0391   -1.3930   -0.6645 C.ar    1  LIG11      -0.0157
     22 C           2.3879   -0.1697   -0.6360 C.ar    1  LIG11       0.1978
     23 C          -4.6461   -1.1003   -3.4109 C.ar    1  LIG11      -0.0163
     24 C          -6.0823   -0.9395   -1.4669 C.ar    1  LIG11      -0.0581
     25 C          -5.8832   -0.7867   -2.8368 C.ar    1  LIG11      -0.0581
     26 C           1.9164   -0.7890    3.8000 C.ar    1  LIG11      -0.0546
     27 C          -0.0711   -0.3402    5.0869 C.ar    1  LIG11      -0.0546
     28 C           2.6057    0.1799    4.5361 C.ar    1  LIG11      -0.0612
     29 C           0.6168    0.6297    5.8203 C.ar    1  LIG11      -0.0612
     30 C           1.9568    0.8875    5.5460 C.ar    1  LIG11      -0.0617
     31 C          -1.8986    2.0301   -0.7340 C.3     1  LIG11       0.0805
     32 C          -2.0458   -1.5369   -4.4297 C.3     1  LIG11       0.0790
     33 C           4.6184   -0.6352   -0.9698 C.ar    1  LIG11       0.0315
     34 C           3.8811    1.5659   -0.8633 C.ar    1  LIG11       0.0315
     35 C           4.9351    0.6997   -1.0248 C.ar    1  LIG11      -0.0254
@<TRIPOS>BOND
     1     1     4    2
     2     1     5    2
     3     1     7    1
     4     1    16    1
     5     2    13    1
     6     2    15    1
     7     3    14    1
     8     3    31    1
     9     6    18    1
    10     6    32    1
    11     7    12    1
    12     8    12   ar
    13     8    17   ar
    14     9    14   ar
    15     9    17   ar
    16    10    22   ar
    17    10    33   ar
    18    11    22   ar
    19    11    34   ar
    20    12    13   ar
    21    13    14   ar
    22    15    18   ar
    23    15    21   ar
    24    16    19    2
    25    17    22    1
    26    18    23   ar
    27    19    20    1
    28    20    26   ar
    29    20    27   ar
    30    21    24   ar
    31    23    25   ar
    32    24    25   ar
    33    26    28   ar
    34    27    29   ar
    35    28    30   ar
    36    29    30   ar
    37    33    35   ar
    38    34    35   ar
