@<TRIPOS>MOLECULE
BOSENTAN_50CONFORMERS.pdb
 39 42 0 0 0
SMALL
GASTEIGER

@<TRIPOS>ATOM
      1  S1        -1.5520    0.6760    2.4160 S.O2    1  LGD1        0.0943
      2  O2        -0.8780    1.7120    1.5880 O.2     1  LGD1       -0.1483
      3  O3        -2.8320    0.9730    3.1390 O.2     1  LGD1       -0.1483
      4  O4        -2.3060   -3.0100    0.0190 O.3     1  LGD1       -0.4427
      5  O5        -0.5220   -3.7750   -2.1340 O.3     1  LGD1       -0.4552
      6  O6        -0.8810   -3.9650    2.2900 O.3     1  LGD1       -0.4684
      7  O7         1.1800   -5.6650   -2.8480 O.3     1  LGD1       -0.2162
      8  N8        -1.8510   -0.6140    1.4210 N.pl3   1  LGD1       -0.0737
      9  N9         0.3760   -0.5420    0.4130 N.ar    1  LGD1       -0.2027
     10  N10        0.9530   -2.1110   -1.4270 N.ar    1  LGD1       -0.1866
     11  N11        3.5960   -1.1520   -0.3830 N.ar    1  LGD1       -0.2224
     12  N12        2.6310    1.0280   -0.8920 N.ar    1  LGD1       -0.2224
     13  C13        2.4660   -1.2960    6.6590 C.3     1  LGD1        0.0189
     14  C14        1.5130   -0.9210    5.5510 C.ar    1  LGD1       -0.0227
     15  C15        1.8460   -0.8510    8.0030 C.3     1  LGD1        0.0044
     16  C16        3.8730   -0.6050    6.6830 C.3     1  LGD1        0.0044
     17  C17        2.6480   -2.8410    6.7990 C.3     1  LGD1        0.0044
     18  C18        0.2630   -1.6020    5.3580 C.ar    1  LGD1       -0.0029
     19  C19        1.7890    0.1150    4.6810 C.ar    1  LGD1       -0.0029
     20  C20       -0.3660    0.0080    3.5740 C.ar    1  LGD1        0.1271
     21  C21       -0.6830   -1.1390    4.4390 C.ar    1  LGD1        0.0199
     22  C22        0.9380    0.5170    3.6570 C.ar    1  LGD1        0.0199
     23  C23       -0.8180   -1.1560    0.5690 C.ar    1  LGD1        0.2125
     24  C24       -1.1340   -2.2690   -0.2590 C.ar    1  LGD1        0.2327
     25  C25       -0.2180   -2.7570   -1.2310 C.ar    1  LGD1        0.2651
     26  C26        1.1960   -1.0530   -0.5450 C.ar    1  LGD1        0.2028
     27  C27       -2.2520   -4.3710    0.3430 C.ar    1  LGD1        0.1793
     28  C28        2.5780   -0.3050   -0.5880 C.ar    1  LGD1        0.1990
     29  C29       -0.0840   -3.7540   -3.5380 C.3     1  LGD1        0.2426
     30  C30       -1.6070   -4.8650    1.5220 C.ar    1  LGD1        0.1730
     31  C31       -2.9680   -5.2660   -0.4740 C.ar    1  LGD1        0.0406
     32  C32       -1.6040   -6.2120    1.7940 C.ar    1  LGD1        0.0401
     33  C33        1.2520   -4.4080   -3.5690 C.3     1  LGD1        0.2292
     34  C34       -3.0030   -6.6730   -0.1350 C.ar    1  LGD1        0.0033
     35  C35       -2.3540   -7.1200    1.0320 C.ar    1  LGD1        0.0033
     36  C36        4.8440   -0.6670   -0.4540 C.ar    1  LGD1        0.1023
     37  C37        3.8960    1.5420   -0.9320 C.ar    1  LGD1        0.1023
     38  C38        5.0200    0.7000   -0.7030 C.ar    1  LGD1        0.0414
     39  C39        0.5660   -4.1080    2.0900 C.3     1  LGD1        0.2526
@<TRIPOS>BOND
     1    33     7    1
     2    33    29    1
     3     5    29    1
     4     5    25    1
     5    10    25   ar
     6    10    26   ar
     7    36    11   ar
     8    36    38   ar
     9    11    28   ar
    10    25    24   ar
    11    38    37   ar
    12    34    31   ar
    13    34    35   ar
    14    28    26    1
    15    28    12   ar
    16    26     9   ar
    17    31    27   ar
    18    37    12   ar
    19    24     4    1
    20    24    23   ar
    21     4    27    1
    22    27    30   ar
    23    35    32   ar
    24    15    13    1
    25     9    23   ar
    26    23     8    1
    27    30    32   ar
    28    30     6    1
    29     6    39    1
    30     8     1    1
    31    18    14   ar
    32    18    21   ar
    33    13    14    1
    34    13    17    1
    35    13    16    1
    36    14    19   ar
    37    21    20   ar
    38    20     1    1
    39    20    22   ar
    40    19    22   ar
    41     1     2    2
    42     1     3    2
@<TRIPOS>MOLECULE
01479498K
 34 38 0 0 0
SMALL
GASTEIGER

@<TRIPOS>ATOM
      1 C          -2.0537   -1.3003    2.9000 C.3     1  LIG11       0.1526
      2 C          -2.3069   -2.7450    2.5644 C.2     1  LIG11       0.0278
      3 C          -0.7792   -1.0248    3.7313 C.ar    1  LIG11       0.0009
      4 O          -2.0584   -0.4774    1.6985 O.3     1  LIG11      -0.4789
      5 C          -1.8673   -3.3277    1.4293 C.2     1  LIG11       0.0016
      6 C          -3.2826   -3.4236    3.5235 C.2     1  LIG11       0.0721
      7 C          -0.4436   -1.8316    4.8363 C.ar    1  LIG11      -0.0091
      8 C           0.0550    0.0903    3.4458 C.ar    1  LIG11      -0.0511
      9 C          -1.3633   -1.0191    0.6474 C.ar    1  LIG11       0.1298
     10 C          -1.1741   -2.3966    0.5011 C.ar    1  LIG11       0.0283
     11 C          -2.1673   -4.7471    1.1134 C.ar    1  LIG11      -0.0165
     12 O          -4.4915   -3.0896    3.3633 O.co2   1  LIG11      -0.5448
     13 O          -2.7609   -4.1659    4.3999 O.co2   1  LIG11      -0.5448
     14 C           0.6936   -1.5336    5.5619 C.ar    1  LIG11       0.1666
     15 C           1.2065    0.3669    4.1931 C.ar    1  LIG11      -0.0158
     16 C          -0.8658   -0.1230   -0.2968 C.ar    1  LIG11      -0.0158
     17 C          -0.4162   -2.8591   -0.5888 C.ar    1  LIG11      -0.0087
     18 C          -2.8782   -5.0738   -0.0490 C.ar    1  LIG11      -0.0505
     19 C          -1.6926   -5.7864    1.9195 C.ar    1  LIG11      -0.0505
     20 C           1.4993   -0.4675    5.2450 C.ar    1  LIG11       0.1662
     21 O           1.1492   -2.2196    6.6456 O.3     1  LIG11      -0.4526
     22 C          -0.1402   -0.6003   -1.3863 C.ar    1  LIG11      -0.0164
     23 C           0.0886   -1.9694   -1.5408 C.ar    1  LIG11       0.1217
     24 C          -3.0973   -6.4100   -0.4076 C.ar    1  LIG11      -0.0194
     25 C          -1.9226   -7.1203    1.5688 C.ar    1  LIG11      -0.0194
     26 O           2.5658   -0.3502    6.0815 O.3     1  LIG11      -0.4526
     27 C           2.3345   -1.4691    6.9623 C.3     1  LIG11       0.2332
     28 O           0.7899   -2.2984   -2.6680 O.3     1  LIG11      -0.4893
     29 C          -2.6181   -7.4404    0.4017 C.ar    1  LIG11       0.1201
     30 C           0.9767   -3.6795   -2.9951 C.3     1  LIG11       0.0946
     31 O          -2.7581   -8.7814    0.1640 O.3     1  LIG11      -0.4951
     32 C          -0.2797   -4.2544   -3.6471 C.3     1  LIG11      -0.0281
     33 C           2.1372   -3.7320   -3.9878 C.3     1  LIG11      -0.0281
     34 C          -3.5253   -9.1487   -0.9738 C.3     1  LIG11       0.0788
@<TRIPOS>BOND
     1     1     4    1
     2     1     2    1
     3     1     3    1
     4     2     5    2
     5     2     6    1
     6     3     8   ar
     7     3     7   ar
     8     4     9    1
     9     5    10    1
    10     5    11    1
    11     6    13   ar
    12     6    12   ar
    13     7    14   ar
    14     8    15   ar
    15     9    16   ar
    16     9    10   ar
    17    10    17   ar
    18    11    18   ar
    19    11    19   ar
    20    14    21    1
    21    14    20   ar
    22    15    20   ar
    23    16    22   ar
    24    17    23   ar
    25    18    24   ar
    26    19    25   ar
    27    20    26    1
    28    21    27    1
    29    22    23   ar
    30    23    28    1
    31    24    29   ar
    32    25    29   ar
    33    26    27    1
    34    28    30    1
    35    29    31    1
    36    30    33    1
    37    30    32    1
    38    31    34    1
