@<TRIPOS>MOLECULE
BOSENTAN_50CONFORMERS.pdb
 39 42 0 0 0
SMALL
GASTEIGER

@<TRIPOS>ATOM
      1  S1        -1.4190    0.2230    2.8520 S.O2    1  LGD1        0.0943
      2  O2        -0.7060    1.3920    2.2280 O.2     1  LGD1       -0.1483
      3  O3        -2.6880    0.3490    3.5440 O.2     1  LGD1       -0.1483
      4  O4        -2.3390   -2.9990   -0.0380 O.3     1  LGD1       -0.4427
      5  O5        -0.5400   -3.7680   -2.1730 O.3     1  LGD1       -0.4552
      6  O6        -0.2480   -3.9010    1.6900 O.3     1  LGD1       -0.4684
      7  O7        -0.9770   -5.5460   -4.6440 O.3     1  LGD1       -0.2162
      8  N8        -1.8330   -0.6470    1.4700 N.pl3   1  LGD1       -0.0737
      9  N9         0.3690   -0.5030    0.3200 N.ar    1  LGD1       -0.2027
     10  N10        0.9730   -2.1100   -1.3520 N.ar    1  LGD1       -0.1866
     11  N11        3.6450   -1.2090   -1.0090 N.ar    1  LGD1       -0.2224
     12  N12        2.6370    0.9570   -0.4590 N.ar    1  LGD1       -0.2224
     13  C13        2.7890   -3.2790    5.6480 C.3     1  LGD1        0.0189
     14  C14        1.6950   -2.3670    5.0110 C.ar    1  LGD1       -0.0227
     15  C15        2.2300   -4.6290    6.0310 C.3     1  LGD1        0.0044
     16  C16        3.2460   -2.5860    6.9670 C.3     1  LGD1        0.0044
     17  C17        3.9410   -3.5060    4.7130 C.3     1  LGD1        0.0044
     18  C18        0.3830   -2.7640    4.7940 C.ar    1  LGD1       -0.0029
     19  C19        2.0450   -1.0650    4.5830 C.ar    1  LGD1       -0.0029
     20  C20       -0.1410   -0.6800    3.7350 C.ar    1  LGD1        0.1271
     21  C21       -0.4640   -1.9490    4.1280 C.ar    1  LGD1        0.0199
     22  C22        1.1720   -0.1950    3.9150 C.ar    1  LGD1        0.0199
     23  C23       -0.8100   -1.1450    0.5510 C.ar    1  LGD1        0.2125
     24  C24       -1.1600   -2.2660   -0.2830 C.ar    1  LGD1        0.2327
     25  C25       -0.2070   -2.7700   -1.2020 C.ar    1  LGD1        0.2651
     26  C26        1.1900   -1.0680   -0.5240 C.ar    1  LGD1        0.2028
     27  C27       -2.5450   -3.9200    1.0150 C.ar    1  LGD1        0.1793
     28  C28        2.6000   -0.3910   -0.6780 C.ar    1  LGD1        0.1990
     29  C29        0.4740   -4.3570   -2.9790 C.3     1  LGD1        0.2426
     30  C30       -1.5160   -4.3160    1.8920 C.ar    1  LGD1        0.1730
     31  C31       -3.8140   -4.4390    1.2170 C.ar    1  LGD1        0.0406
     32  C32       -1.7530   -5.2040    3.0060 C.ar    1  LGD1        0.0401
     33  C33        0.0000   -5.6910   -3.5430 C.3     1  LGD1        0.2292
     34  C34       -4.0330   -5.3300    2.2920 C.ar    1  LGD1        0.0033
     35  C35       -3.0290   -5.6640    3.1870 C.ar    1  LGD1        0.0033
     36  C36        4.8490   -0.5980   -1.0730 C.ar    1  LGD1        0.1023
     37  C37        3.8880    1.5070   -0.4120 C.ar    1  LGD1        0.1023
     38  C38        4.9670    0.7170   -0.6970 C.ar    1  LGD1        0.0414
     39  C39        0.4290   -4.9410    0.9480 C.3     1  LGD1        0.2526
@<TRIPOS>BOND
     1    33     7    1
     2    33    29    1
     3     5    29    1
     4     5    25    1
     5    10    25   ar
     6    10    26   ar
     7    36    11   ar
     8    36    38   ar
     9    11    28   ar
    10    25    24   ar
    11    38    37   ar
    12    34    31   ar
    13    34    35   ar
    14    28    26    1
    15    28    12   ar
    16    26     9   ar
    17    31    27   ar
    18    37    12   ar
    19    24     4    1
    20    24    23   ar
    21     4    27    1
    22    27    30   ar
    23    35    32   ar
    24    15    13    1
    25     9    23   ar
    26    23     8    1
    27    30    32   ar
    28    30     6    1
    29     6    39    1
    30     8     1    1
    31    18    14   ar
    32    18    21   ar
    33    13    14    1
    34    13    17    1
    35    13    16    1
    36    14    19   ar
    37    21    20   ar
    38    20     1    1
    39    20    22   ar
    40    19    22   ar
    41     1     2    2
    42     1     3    2
@<TRIPOS>MOLECULE
159594
 37 40 0 0 0
SMALL
GASTEIGER

@<TRIPOS>ATOM
      1 O           0.8432   -6.4825    5.8330 O.co2   1  LIG11      -0.5493
      2 O          -1.3090   -6.0207    6.4339 O.co2   1  LIG11      -0.5493
      3 O           3.4843    0.2994    5.2494 O.3     1  LIG11      -0.4526
      4 O           2.1759   -4.2439    0.5372 O.2     1  LIG11      -0.2697
      5 O           1.7129    1.5756    4.2256 O.3     1  LIG11      -0.4526
      6 O          -5.8240   -5.3868    1.5448 O.3     1  LIG11      -0.4951
      7 N           0.6072   -5.0244    2.6298 N.3     1  LIG11       0.2481
      8 N           2.0872   -6.1855   -0.7013 N.am    1  LIG11      -0.2971
      9 C          -0.2518   -4.6561    4.8461 C.3     1  LIG11       0.0574
     10 C           1.1403   -4.0247    4.7397 C.3     1  LIG11       0.0378
     11 C          -0.4865   -5.4855    3.5826 C.3     1  LIG11       0.0143
     12 C           1.7805   -4.7466    3.5508 C.3     1  LIG11      -0.0230
     13 C           1.1970   -2.5115    4.5521 C.ar    1  LIG11      -0.0347
     14 C          -1.9011   -5.4094    3.0296 C.ar    1  LIG11       0.0011
     15 C           0.9083   -6.0153    1.5223 C.3     1  LIG11       0.0468
     16 C          -0.2250   -5.8111    5.8328 C.2     1  LIG11       0.0513
     17 C           2.3577   -1.8468    5.0015 C.ar    1  LIG11      -0.0125
     18 C           1.7831   -5.4090    0.4165 C.2     1  LIG11       0.2608
     19 C           0.1681   -1.7512    3.9523 C.ar    1  LIG11      -0.0544
     20 C          -2.8394   -6.3370    3.5215 C.ar    1  LIG11      -0.0498
     21 C          -2.3344   -4.4858    2.0715 C.ar    1  LIG11      -0.0498
     22 C           2.4435   -0.4790    4.8521 C.ar    1  LIG11       0.1665
     23 C           0.2887   -0.3608    3.8057 C.ar    1  LIG11      -0.0159
     24 C           1.4361    0.2457    4.2693 C.ar    1  LIG11       0.1662
     25 C          -4.1565   -6.3669    3.0565 C.ar    1  LIG11      -0.0195
     26 C          -3.6562   -4.5214    1.6042 C.ar    1  LIG11      -0.0195
     27 C           2.8591   -5.5441   -1.7751 C.3     1  LIG11       0.0148
     28 C           1.5342   -7.5272   -0.9453 C.3     1  LIG11       0.0148
     29 C          -4.5719   -5.4598    2.0885 C.ar    1  LIG11       0.1201
     30 C           2.1235   -4.4347   -2.5361 C.3     1  LIG11      -0.0374
     31 C           2.5331   -8.6188   -1.3545 C.3     1  LIG11      -0.0374
     32 C           2.9922    1.6077    4.8935 C.3     1  LIG11       0.2332
     33 C           0.8578   -4.9098   -3.2455 C.3     1  LIG11      -0.0545
     34 C           3.5582   -9.0092   -0.2873 C.3     1  LIG11      -0.0545
     35 C           0.2541   -3.7961   -4.0879 C.3     1  LIG11      -0.0652
     36 C           4.6898   -8.0097   -0.1120 C.3     1  LIG11      -0.0652
     37 C          -6.8038   -6.2714    2.0797 C.3     1  LIG11       0.0788
@<TRIPOS>BOND
     1     1    16   ar
     2     2    16   ar
     3     3    22    1
     4     3    32    1
     5     4    18    2
     6     5    24    1
     7     5    32    1
     8     6    29    1
     9     6    37    1
    10     7    11    1
    11     7    12    1
    12     7    15    1
    13     8    18   am
    14     8    27    1
    15     8    28    1
    16     9    10    1
    17     9    11    1
    18     9    16    1
    19    10    12    1
    20    10    13    1
    21    11    14    1
    22    13    17   ar
    23    13    19   ar
    24    14    20   ar
    25    14    21   ar
    26    15    18    1
    27    17    22   ar
    28    19    23   ar
    29    20    25   ar
    30    21    26   ar
    31    22    24   ar
    32    23    24   ar
    33    25    29   ar
    34    26    29   ar
    35    27    30    1
    36    28    31    1
    37    30    33    1
    38    31    34    1
    39    33    35    1
    40    34    36    1
