@<TRIPOS>MOLECULE
BOSENTAN_50CONFORMERS.pdb
 39 42 0 0 0
SMALL
GASTEIGER

@<TRIPOS>ATOM
      1  S1        -1.7190   -1.1980    3.1480 S.O2    1  LGD1        0.0943
      2  O2        -1.0650   -2.5580    3.0820 O.2     1  LGD1       -0.1483
      3  O3        -1.0440   -0.0940    3.8910 O.2     1  LGD1       -0.1483
      4  O4        -2.4210   -2.9380   -0.3040 O.3     1  LGD1       -0.4427
      5  O5        -0.4360   -3.8110   -2.0740 O.3     1  LGD1       -0.4552
      6  O6        -4.1480   -4.6140    1.0730 O.3     1  LGD1       -0.4684
      7  O7         0.3790   -6.3290   -1.3010 O.3     1  LGD1       -0.2162
      8  N8        -1.7990   -0.6700    1.5370 N.pl3   1  LGD1       -0.0737
      9  N9         0.3940   -0.5880    0.3840 N.ar    1  LGD1       -0.2027
     10  N10        0.9270   -2.1020   -1.4260 N.ar    1  LGD1       -0.1866
     11  N11        3.3820   -0.9880   -1.4720 N.ar    1  LGD1       -0.2224
     12  N12        2.2790    1.1290   -0.8550 N.ar    1  LGD1       -0.2224
     13  C13       -7.5590   -1.0820    4.8620 C.3     1  LGD1        0.0189
     14  C14       -6.1270   -1.0490    4.3390 C.ar    1  LGD1       -0.0227
     15  C15       -8.3990   -2.3140    4.5870 C.3     1  LGD1        0.0044
     16  C16       -8.3430    0.0760    4.2990 C.3     1  LGD1        0.0044
     17  C17       -7.6530   -0.8810    6.4090 C.3     1  LGD1        0.0044
     18  C18       -5.3940    0.1080    3.9290 C.ar    1  LGD1       -0.0029
     19  C19       -5.4270   -2.2600    4.3400 C.ar    1  LGD1       -0.0029
     20  C20       -3.4020   -1.1640    3.6230 C.ar    1  LGD1        0.1271
     21  C21       -4.0470    0.0480    3.5190 C.ar    1  LGD1        0.0199
     22  C22       -4.1070   -2.3380    3.8750 C.ar    1  LGD1        0.0199
     23  C23       -0.8690   -1.1110    0.5130 C.ar    1  LGD1        0.2125
     24  C24       -1.2210   -2.1680   -0.3820 C.ar    1  LGD1        0.2327
     25  C25       -0.2100   -2.7390   -1.1960 C.ar    1  LGD1        0.2651
     26  C26        1.1950   -1.0880   -0.5480 C.ar    1  LGD1        0.2028
     27  C27       -3.7060   -2.5140   -0.0890 C.ar    1  LGD1        0.1793
     28  C28        2.4070   -0.2460   -0.9000 C.ar    1  LGD1        0.1990
     29  C29        0.6550   -4.4970   -2.7390 C.3     1  LGD1        0.2426
     30  C30       -4.5570   -3.3220    0.6690 C.ar    1  LGD1        0.1730
     31  C31       -4.1460   -1.2830   -0.5860 C.ar    1  LGD1        0.0406
     32  C32       -5.7720   -2.8520    1.1050 C.ar    1  LGD1        0.0401
     33  C33        1.3350   -5.4170   -1.7390 C.3     1  LGD1        0.2292
     34  C34       -5.3860   -0.7930   -0.1220 C.ar    1  LGD1        0.0033
     35  C35       -6.1520   -1.5580    0.7430 C.ar    1  LGD1        0.0033
     36  C36        4.4450   -0.3090   -1.9620 C.ar    1  LGD1        0.1023
     37  C37        3.3930    1.7710   -1.2500 C.ar    1  LGD1        0.1023
     38  C38        4.4320    1.0600   -1.7550 C.ar    1  LGD1        0.0414
     39  C39       -4.5040   -5.5700    0.0920 C.3     1  LGD1        0.2526
@<TRIPOS>BOND
     1    33     7    1
     2    33    29    1
     3     5    29    1
     4     5    25    1
     5    10    25   ar
     6    10    26   ar
     7    36    11   ar
     8    36    38   ar
     9    11    28   ar
    10    25    24   ar
    11    38    37   ar
    12    34    31   ar
    13    34    35   ar
    14    28    26    1
    15    28    12   ar
    16    26     9   ar
    17    31    27   ar
    18    37    12   ar
    19    24     4    1
    20    24    23   ar
    21     4    27    1
    22    27    30   ar
    23    35    32   ar
    24    15    13    1
    25     9    23   ar
    26    23     8    1
    27    30    32   ar
    28    30     6    1
    29     6    39    1
    30     8     1    1
    31    18    14   ar
    32    18    21   ar
    33    13    14    1
    34    13    17    1
    35    13    16    1
    36    14    19   ar
    37    21    20   ar
    38    20     1    1
    39    20    22   ar
    40    19    22   ar
    41     1     2    2
    42     1     3    2
@<TRIPOS>MOLECULE
*****
 39 42 0 0 0
SMALL
GASTEIGER

@<TRIPOS>ATOM
      1 C          -3.1816   -4.3786   -7.2659 C.ar    1  LIG11       0.0483
      2 C          -4.1428   -5.3032   -6.9279 C.ar    1  LIG11       0.0543
      3 C          -4.7247   -5.1312   -5.6934 C.ar    1  LIG11       0.0483
      4 N          -4.4019   -4.1264   -4.8523 N.ar    1  LIG11      -0.2022
      5 N          -2.8104   -3.3596   -6.4611 N.ar    1  LIG11      -0.2022
      6 C          -6.4444   -1.8575   -0.0769 C.ar    1  LIG11      -0.0504
      7 C          -5.8062   -0.6392   -0.3215 C.ar    1  LIG11      -0.0583
      8 C          -4.4094   -0.5518   -0.3003 C.ar    1  LIG11      -0.0535
      9 C          -3.6119   -1.6780   -0.0387 C.ar    1  LIG11      -0.0094
     10 C          -4.2719   -2.8836    0.2577 C.ar    1  LIG11      -0.0535
     11 C          -5.6674   -2.9719    0.2465 C.ar    1  LIG11      -0.0583
     12 C          -5.2834   -2.1783    4.8062 C.ar    1  LIG11      -0.0561
     13 C          -3.9499   -2.2730    4.3966 C.ar    1  LIG11      -0.0348
     14 C          -3.3811   -1.2323    3.6657 C.ar    1  LIG11       0.1086
     15 C          -4.1278   -0.0973    3.3613 C.ar    1  LIG11      -0.0348
     16 C          -5.4623   -0.0142    3.7707 C.ar    1  LIG11      -0.0561
     17 C          -7.5387   -0.9647    4.9787 C.3     1  LIG11       0.0132
     18 C          -6.0754   -1.0528    4.4938 C.ar    1  LIG11      -0.0394
     19 C          -7.5282   -0.7374    6.5052 C.3     1  LIG11      -0.0537
     20 C          -8.3810    0.1527    4.2869 C.3     1  LIG11       0.0533
     21 C          -8.2774   -2.2929    4.6773 C.3     1  LIG11      -0.0537
     22 O          -8.0278    1.4757    4.6842 O.3     1  LIG11      -0.3942
     23 S          -1.6680   -1.3127    3.2175 S.O2    1  LIG11       0.0735
     24 O          -0.9630   -1.8245    4.3771 O.2     1  LIG11      -0.1499
     25 O          -1.2983   -0.0535    2.6078 O.2     1  LIG11      -0.1499
     26 N          -1.6467   -2.5637    2.0747 N.pl3   1  LIG11      -0.1988
     27 C          -2.1416   -1.6390   -0.1655 C.ar    1  LIG11       0.0847
     28 C          -1.4908   -1.2045   -1.3169 C.ar    1  LIG11       0.2276
     29 N          -0.1582   -1.2709   -1.5227 N.ar    1  LIG11      -0.2008
     30 C           0.5601   -1.7940   -0.5258 C.ar    1  LIG11       0.1219
     31 N           0.0754   -2.2573    0.6279 N.ar    1  LIG11      -0.2186
     32 C          -1.2562   -2.1467    0.7747 C.ar    1  LIG11       0.1524
     33 C          -7.9377   -1.9722   -0.1427 C.3     1  LIG11      -0.0397
     34 O          -2.2663   -0.6444   -2.3122 O.3     1  LIG11      -0.4724
     35 C          -1.6767   -0.5802   -3.6129 C.3     1  LIG11       0.1252
     36 C          -1.8202   -1.9103   -4.3528 C.3     1  LIG11       0.1267
     37 O          -3.2159   -2.1997   -4.4742 O.3     1  LIG11      -0.4590
     38 C          -3.4450   -3.2881   -5.2779 C.ar    1  LIG11       0.3180
     39 BR         -4.6349   -6.7003   -8.0801 Br      1  LIG11      -0.0472
@<TRIPOS>BOND
     1     1     2   ar
     2     2     3   ar
     3     2    39    1
     4     3     4   ar
     5     4    38   ar
     6     5     1   ar
     7     6     7   ar
     8     6    33    1
     9     7     8   ar
    10     8     9   ar
    11     9    10   ar
    12    10    11   ar
    13    11     6   ar
    14    12    13   ar
    15    13    14   ar
    16    14    15   ar
    17    15    16   ar
    18    16    18   ar
    19    17    18    1
    20    17    21    1
    21    17    20    1
    22    17    19    1
    23    18    12   ar
    24    20    22    1
    25    23    26    1
    26    23    25    2
    27    23    24    2
    28    23    14    1
    29    26    32    1
    30    27    28   ar
    31    27     9    1
    32    28    29   ar
    33    29    30   ar
    34    30    31   ar
    35    31    32   ar
    36    32    27   ar
    37    34    35    1
    38    34    28    1
    39    35    36    1
    40    36    37    1
    41    37    38    1
    42    38     5   ar
