@<TRIPOS>MOLECULE
BOSENTAN_50CONFORMERS.pdb
 39 42 0 0 0
SMALL
GASTEIGER

@<TRIPOS>ATOM
      1  S1        -1.2370    0.1620    2.8570 S.O2    1  LGD1        0.0943
      2  O2        -0.4130    1.3820    2.4810 O.2     1  LGD1       -0.1483
      3  O3        -2.4530    0.3900    3.6750 O.2     1  LGD1       -0.1483
      4  O4        -2.3880   -2.7650   -0.1120 O.3     1  LGD1       -0.4427
      5  O5        -0.4890   -3.7900   -2.0520 O.3     1  LGD1       -0.4552
      6  O6        -1.1040   -3.8950    2.1700 O.3     1  LGD1       -0.4684
      7  O7        -0.7000   -5.4660   -4.4110 O.3     1  LGD1       -0.2162
      8  N8        -1.7620   -0.7360    1.5000 N.pl3   1  LGD1       -0.0737
      9  N9         0.3470   -0.5510    0.3410 N.ar    1  LGD1       -0.2027
     10  N10        0.9890   -2.1210   -1.3840 N.ar    1  LGD1       -0.1866
     11  N11        3.2780   -0.3800    0.5340 N.ar    1  LGD1       -0.2224
     12  N12        2.7470    0.2870   -1.8070 N.ar    1  LGD1       -0.2224
     13  C13        2.1080   -3.6810    6.4250 C.3     1  LGD1        0.0189
     14  C14        1.3330   -2.5870    5.6550 C.ar    1  LGD1       -0.0227
     15  C15        3.5950   -3.5340    6.3770 C.3     1  LGD1        0.0044
     16  C16        1.7960   -4.9780    5.7160 C.3     1  LGD1        0.0044
     17  C17        1.7710   -3.9110    7.8870 C.3     1  LGD1        0.0044
     18  C18        1.9210   -1.6830    4.7520 C.ar    1  LGD1       -0.0029
     19  C19       -0.0800   -2.6910    5.6780 C.ar    1  LGD1       -0.0029
     20  C20       -0.2550   -0.9230    3.9280 C.ar    1  LGD1        0.1271
     21  C21        1.1720   -0.8700    3.9210 C.ar    1  LGD1        0.0199
     22  C22       -0.8600   -1.8310    4.8160 C.ar    1  LGD1        0.0199
     23  C23       -0.8840   -1.1100    0.4780 C.ar    1  LGD1        0.2125
     24  C24       -1.1770   -2.1770   -0.3220 C.ar    1  LGD1        0.2327
     25  C25       -0.2380   -2.6790   -1.2270 C.ar    1  LGD1        0.2651
     26  C26        1.1970   -1.1130   -0.5260 C.ar    1  LGD1        0.2028
     27  C27       -2.5230   -4.0940    0.2060 C.ar    1  LGD1        0.1793
     28  C28        2.5370   -0.3470   -0.5690 C.ar    1  LGD1        0.1990
     29  C29       -1.3770   -3.5150   -3.1800 C.3     1  LGD1        0.2426
     30  C30       -1.8710   -4.6400    1.2460 C.ar    1  LGD1        0.1730
     31  C31       -3.4000   -4.9600   -0.5370 C.ar    1  LGD1        0.0406
     32  C32       -2.0650   -5.9920    1.6420 C.ar    1  LGD1        0.0401
     33  C33       -1.8600   -4.8150   -3.8350 C.3     1  LGD1        0.2292
     34  C34       -3.5370   -6.3420   -0.2630 C.ar    1  LGD1        0.0033
     35  C35       -2.8310   -6.8840    0.8430 C.ar    1  LGD1        0.0033
     36  C36        4.3580    0.4000    0.4620 C.ar    1  LGD1        0.1023
     37  C37        3.8670    1.0790   -1.8320 C.ar    1  LGD1        0.1023
     38  C38        4.6930    1.1800   -0.6750 C.ar    1  LGD1        0.0414
     39  C39        0.3750   -4.0230    2.0230 C.3     1  LGD1        0.2526
@<TRIPOS>BOND
     1    33     7    1
     2    33    29    1
     3     5    29    1
     4     5    25    1
     5    10    25   ar
     6    10    26   ar
     7    36    11   ar
     8    36    38   ar
     9    11    28   ar
    10    25    24   ar
    11    38    37   ar
    12    34    31   ar
    13    34    35   ar
    14    28    26    1
    15    28    12   ar
    16    26     9   ar
    17    31    27   ar
    18    37    12   ar
    19    24     4    1
    20    24    23   ar
    21     4    27    1
    22    27    30   ar
    23    35    32   ar
    24    15    13    1
    25     9    23   ar
    26    23     8    1
    27    30    32   ar
    28    30     6    1
    29     6    39    1
    30     8     1    1
    31    18    14   ar
    32    18    21   ar
    33    13    14    1
    34    13    17    1
    35    13    16    1
    36    14    19   ar
    37    21    20   ar
    38    20     1    1
    39    20    22   ar
    40    19    22   ar
    41     1     2    2
    42     1     3    2
@<TRIPOS>MOLECULE
108002
 38 42 0 0 0
SMALL
GASTEIGER

@<TRIPOS>ATOM
      1 O           2.6321   -5.1397    1.2060 O.co2   1  LIG11      -0.5495
      2 O           2.0288   -5.4754    3.3776 O.co2   1  LIG11      -0.5495
      3 O          -1.5310   -0.6059   -2.3584 O.3     1  LIG11      -0.4920
      4 O          -0.4193   -7.3569    0.1643 O.3     1  LIG11      -0.4858
      5 O           2.4468   -0.2316    6.0824 O.3     1  LIG11      -0.4526
      6 O           0.2979   -0.4070    7.1681 O.3     1  LIG11      -0.4526
      7 O          -5.2518   -7.0205    0.5469 O.3     1  LIG11      -0.4950
      8 O          -1.4648  -10.0888   -0.0596 O.co2   1  LIG11      -0.5463
      9 O           0.3073  -10.4036   -1.4482 O.co2   1  LIG11      -0.5463
     10 C           0.5241   -4.3367    1.9649 C.3     1  LIG11       0.0203
     11 C          -0.0930   -4.4903    0.5519 C.3     1  LIG11       0.0218
     12 C           1.0157   -2.8715    2.1357 C.3     1  LIG11       0.0184
     13 C          -0.2141   -3.0431    0.0833 C.ar    1  LIG11      -0.0320
     14 C           0.3410   -2.1480    0.9977 C.ar    1  LIG11      -0.0353
     15 C           0.7516   -2.2371    3.4969 C.ar    1  LIG11      -0.0356
     16 C          -1.4465   -5.2213    0.5774 C.ar    1  LIG11       0.0026
     17 C           1.8349   -5.0912    2.1869 C.2     1  LIG11       0.0466
     18 C          -0.8169   -2.5729   -1.0857 C.ar    1  LIG11      -0.0159
     19 C           0.3149   -0.7777    0.7657 C.ar    1  LIG11      -0.0542
     20 C          -0.9071   -1.1924   -1.2891 C.ar    1  LIG11       0.1208
     21 C          -1.5544   -6.5995    0.3152 C.ar    1  LIG11       0.1283
     22 C           1.7952   -1.5310    4.1261 C.ar    1  LIG11      -0.0124
     23 C          -0.5079   -2.3160    4.1354 C.ar    1  LIG11      -0.0543
     24 C          -0.3190   -0.3025   -0.3810 C.ar    1  LIG11      -0.0196
     25 C          -2.6397   -4.5169    0.8536 C.ar    1  LIG11      -0.0510
     26 C           1.5510   -0.9488    5.3507 C.ar    1  LIG11       0.1665
     27 C          -0.7246   -1.7217    5.3845 C.ar    1  LIG11      -0.0159
     28 C          -2.8116   -7.2243    0.3153 C.ar    1  LIG11       0.0221
     29 C          -3.8884   -5.1444    0.8148 C.ar    1  LIG11      -0.0194
     30 C           0.3254   -1.0449    5.9653 C.ar    1  LIG11       0.1662
     31 C          -3.9815   -6.5048    0.5456 C.ar    1  LIG11       0.1236
     32 C          -2.7490   -1.2402   -2.7585 C.3     1  LIG11       0.0893
     33 C           1.6638    0.0460    7.2570 C.3     1  LIG11       0.2332
     34 C          -0.3870   -8.1620   -1.0394 C.3     1  LIG11       0.1287
     35 C          -3.7517   -0.1333   -3.0774 C.3     1  LIG11      -0.0215
     36 C          -0.5049   -9.6862   -0.7843 C.2     1  LIG11       0.0789
     37 C          -5.3382   -8.4403    0.4425 C.3     1  LIG11       0.0788
     38 C          -5.0742   -0.6857   -3.5757 C.3     1  LIG11      -0.0622
@<TRIPOS>BOND
     1     1    17   ar
     2     2    17   ar
     3     3    20    1
     4     3    32    1
     5     4    21    1
     6     4    34    1
     7     5    26    1
     8     5    33    1
     9     6    30    1
    10     6    33    1
    11     7    31    1
    12     7    37    1
    13     8    36   ar
    14     9    36   ar
    15    10    11    1
    16    10    12    1
    17    10    17    1
    18    11    13    1
    19    11    16    1
    20    12    14    1
    21    12    15    1
    22    13    14   ar
    23    13    18   ar
    24    14    19   ar
    25    15    22   ar
    26    15    23   ar
    27    16    21   ar
    28    16    25   ar
    29    18    20   ar
    30    19    24   ar
    31    20    24   ar
    32    21    28   ar
    33    22    26   ar
    34    23    27   ar
    35    25    29   ar
    36    26    30   ar
    37    27    30   ar
    38    28    31   ar
    39    29    31   ar
    40    32    35    1
    41    34    36    1
    42    35    38    1
