@<TRIPOS>MOLECULE
BOSENTAN_50CONFORMERS.pdb
 39 42 0 0 0
SMALL
GASTEIGER

@<TRIPOS>ATOM
      1  S1        -2.0550    0.9060    1.7150 S.O2    1  LGD1        0.0943
      2  O2        -1.7260    1.5580    0.4090 O.2     1  LGD1       -0.1483
      3  O3        -3.4080    0.9190    2.2760 O.2     1  LGD1       -0.1483
      4  O4        -2.3760   -2.9110   -0.0560 O.3     1  LGD1       -0.4427
      5  O5        -0.5950   -3.7310   -2.0680 O.3     1  LGD1       -0.4552
      6  O6        -3.7100   -0.7610   -1.4360 O.3     1  LGD1       -0.4684
      7  O7        -0.3880   -6.5060   -3.1280 O.3     1  LGD1       -0.2162
      8  N8        -1.7970   -0.7160    1.4130 N.pl3   1  LGD1       -0.0737
      9  N9         0.3130   -0.4800    0.3150 N.ar    1  LGD1       -0.2027
     10  N10        1.0210   -2.1360   -1.3260 N.ar    1  LGD1       -0.1866
     11  N11        2.7960    0.3530    0.6890 N.ar    1  LGD1       -0.2224
     12  N12        3.6840   -0.8990   -1.2400 N.ar    1  LGD1       -0.2224
     13  C13        2.3810    2.3730    5.8440 C.3     1  LGD1        0.0189
     14  C14        1.2950    1.8310    4.8080 C.ar    1  LGD1       -0.0227
     15  C15        3.8300    2.1400    5.3300 C.3     1  LGD1        0.0044
     16  C16        2.2720    1.5600    7.2150 C.3     1  LGD1        0.0044
     17  C17        2.1280    3.9080    6.1490 C.3     1  LGD1        0.0044
     18  C18        1.4440    2.0820    3.4370 C.ar    1  LGD1       -0.0029
     19  C19        0.0590    1.1830    5.1470 C.ar    1  LGD1       -0.0029
     20  C20       -0.7140    1.2880    2.8490 C.ar    1  LGD1        0.1271
     21  C21        0.4620    1.8930    2.4600 C.ar    1  LGD1        0.0199
     22  C22       -0.9400    0.9240    4.1850 C.ar    1  LGD1        0.0199
     23  C23       -0.8020   -1.1900    0.5330 C.ar    1  LGD1        0.2125
     24  C24       -1.1460   -2.2610   -0.2750 C.ar    1  LGD1        0.2327
     25  C25       -0.2230   -2.6900   -1.2580 C.ar    1  LGD1        0.2651
     26  C26        1.2120   -1.0720   -0.5260 C.ar    1  LGD1        0.2028
     27  C27       -3.3390   -3.0960   -1.0480 C.ar    1  LGD1        0.1793
     28  C28        2.6780   -0.5030   -0.3510 C.ar    1  LGD1        0.1990
     29  C29        0.1650   -4.0480   -3.2170 C.3     1  LGD1        0.2426
     30  C30       -3.8440   -2.0350   -1.7770 C.ar    1  LGD1        0.1730
     31  C31       -3.6550   -4.4500   -1.3090 C.ar    1  LGD1        0.0406
     32  C32       -4.6600   -2.3550   -2.8830 C.ar    1  LGD1        0.0401
     33  C33       -0.6170   -5.2290   -3.7610 C.3     1  LGD1        0.2292
     34  C34       -4.4520   -4.7260   -2.4710 C.ar    1  LGD1        0.0033
     35  C35       -4.9320   -3.6990   -3.2400 C.ar    1  LGD1        0.0033
     36  C36        4.0910    0.7020    0.9390 C.ar    1  LGD1        0.1023
     37  C37        4.9070   -0.3850   -1.0710 C.ar    1  LGD1        0.1023
     38  C38        5.0910    0.4170    0.0490 C.ar    1  LGD1        0.0414
     39  C39       -4.7500   -0.4210   -0.4590 C.3     1  LGD1        0.2526
@<TRIPOS>BOND
     1    33     7    1
     2    33    29    1
     3     5    29    1
     4     5    25    1
     5    10    25   ar
     6    10    26   ar
     7    36    11   ar
     8    36    38   ar
     9    11    28   ar
    10    25    24   ar
    11    38    37   ar
    12    34    31   ar
    13    34    35   ar
    14    28    26    1
    15    28    12   ar
    16    26     9   ar
    17    31    27   ar
    18    37    12   ar
    19    24     4    1
    20    24    23   ar
    21     4    27    1
    22    27    30   ar
    23    35    32   ar
    24    15    13    1
    25     9    23   ar
    26    23     8    1
    27    30    32   ar
    28    30     6    1
    29     6    39    1
    30     8     1    1
    31    18    14   ar
    32    18    21   ar
    33    13    14    1
    34    13    17    1
    35    13    16    1
    36    14    19   ar
    37    21    20   ar
    38    20     1    1
    39    20    22   ar
    40    19    22   ar
    41     1     2    2
    42     1     3    2
@<TRIPOS>MOLECULE
9939443
 43 47 0 0 0
SMALL
GASTEIGER

@<TRIPOS>ATOM
      1 S          -2.1165    0.6241    1.7456 S.O2    1  LIG11       0.0908
      2 O          -2.4331   -2.0515   -0.3159 O.3     1  LIG11      -0.4435
      3 O          -2.4911   -0.7228    2.1462 O.2     1  LIG11      -0.1484
      4 O          -3.0783    1.7076    1.8344 O.2     1  LIG11      -0.1484
      5 O          -0.3924   -3.8289   -1.4294 O.3     1  LIG11      -0.4715
      6 O          -4.3535   -0.5042   -1.5351 O.3     1  LIG11      -0.4914
      7 O          -0.4636   -3.3679   -4.3745 O.3     1  LIG11      -0.3917
      8 N          -1.5075    0.6110    0.1710 N.pl3   1  LIG11      -0.1950
      9 N          -0.0176    2.1779    2.2644 N.ar    1  LIG11      -0.2351
     10 N           0.6391   -0.1199   -0.0515 N.ar    1  LIG11      -0.2073
     11 N           1.1953   -2.2725   -0.8420 N.ar    1  LIG11      -0.1899
     12 N           5.6792   -0.5356    0.6166 N.ar    1  LIG11      -0.2552
     13 N           6.5270    1.9340    1.8222 N.ar    1  LIG11      -0.5621
     14 N           4.7457    2.9909    0.9142 N.ar    1  LIG11      -0.1535
     15 N           6.5707    3.2657    1.9312 N.ar    1  LIG11      -0.3597
     16 N           5.5327    3.9331    1.4150 N.ar    1  LIG11      -0.0878
     17 C           2.5871    2.4448    5.0772 C.3     1  LIG11      -0.0201
     18 C           1.4363    1.9627    4.2091 C.ar    1  LIG11      -0.0266
     19 C           3.4693    3.5270    4.4521 C.3     1  LIG11      -0.0586
     20 C           2.0757    2.9425    6.4352 C.3     1  LIG11      -0.0586
     21 C          -0.7009    1.1029    2.7345 C.ar    1  LIG11       0.1969
     22 C           0.7165    0.8243    4.6080 C.ar    1  LIG11      -0.0535
     23 C           1.0290    2.5860    3.0261 C.ar    1  LIG11       0.0332
     24 C          -0.3747    0.3835    3.8707 C.ar    1  LIG11      -0.0160
     25 C          -0.6560   -0.4771   -0.1617 C.ar    1  LIG11       0.1882
     26 C          -1.1254   -1.7238   -0.5588 C.ar    1  LIG11       0.2307
     27 C          -0.1154   -2.5649   -0.9772 C.ar    1  LIG11       0.2641
     28 C           1.5280   -1.0706   -0.3566 C.ar    1  LIG11       0.1659
     29 C           2.9550   -0.8537   -0.0512 C.ar    1  LIG11       0.0227
     30 C          -3.2151   -2.6003   -1.3008 C.ar    1  LIG11       0.1702
     31 C           3.4556    0.3825    0.3865 C.ar    1  LIG11      -0.0252
     32 C           3.8735   -1.9132   -0.1543 C.ar    1  LIG11      -0.0328
     33 C           0.5392   -4.3365   -2.3998 C.3     1  LIG11       0.1143
     34 C          -4.2129   -1.8207   -1.8935 C.ar    1  LIG11       0.1621
     35 C           4.8089    0.5040    0.7067 C.ar    1  LIG11       0.0708
     36 C          -3.2287   -3.9792   -1.5188 C.ar    1  LIG11      -0.0157
     37 C           5.1977   -1.7129    0.1862 C.ar    1  LIG11       0.0289
     38 C          -0.1908   -4.6019   -3.7146 C.3     1  LIG11       0.0783
     39 C          -5.1010   -2.3789   -2.8182 C.ar    1  LIG11      -0.0163
     40 C          -4.1182   -4.5468   -2.4352 C.ar    1  LIG11      -0.0581
     41 C          -5.0435   -3.7434   -3.0984 C.ar    1  LIG11      -0.0581
     42 C           5.3669    1.7816    1.1511 C.ar    1  LIG11       0.0207
     43 C          -5.4685   -0.3623   -0.6469 C.3     1  LIG11       0.0790
@<TRIPOS>BOND
     1     1    21    1
     2     1     8    1
     3     1     4    2
     4     1     3    2
     5     2    26    1
     6     2    30    1
     7     5    27    1
     8     5    33    1
     9     6    34    1
    10     6    43    1
    11     7    38    1
    12     8    25    1
    13     9    23   ar
    14     9    21   ar
    15    10    25   ar
    16    10    28   ar
    17    11    27   ar
    18    11    28   ar
    19    12    37   ar
    20    12    35   ar
    21    13    15   ar
    22    13    42   ar
    23    14    42   ar
    24    14    16   ar
    25    15    16   ar
    26    17    18    1
    27    17    20    1
    28    17    19    1
    29    18    23   ar
    30    18    22   ar
    31    21    24   ar
    32    22    24   ar
    33    25    26   ar
    34    26    27   ar
    35    28    29    1
    36    29    31   ar
    37    29    32   ar
    38    30    36   ar
    39    30    34   ar
    40    31    35   ar
    41    32    37   ar
    42    33    38    1
    43    34    39   ar
    44    35    42    1
    45    36    40   ar
    46    39    41   ar
    47    40    41   ar
