@<TRIPOS>MOLECULE
BOSENTAN_50CONFORMERS.pdb
 39 42 0 0 0
SMALL
GASTEIGER

@<TRIPOS>ATOM
      1  S1        -1.5470    0.3490    2.7160 S.O2    1  LGD1        0.0943
      2  O2        -0.7530    1.4980    2.2170 O.2     1  LGD1       -0.1483
      3  O3        -2.8600    0.5760    3.4280 O.2     1  LGD1       -0.1483
      4  O4        -2.2520   -2.9670   -0.1090 O.3     1  LGD1       -0.4427
      5  O5        -0.5680   -3.7520   -2.0580 O.3     1  LGD1       -0.4552
      6  O6        -0.3510   -4.4310    1.3380 O.3     1  LGD1       -0.4684
      7  O7         0.6390   -6.3300   -1.1040 O.3     1  LGD1       -0.2162
      8  N8        -1.8990   -0.6020    1.4090 N.pl3   1  LGD1       -0.0737
      9  N9         0.3940   -0.6390    0.4710 N.ar    1  LGD1       -0.2027
     10  N10        0.9380   -2.0520   -1.4960 N.ar    1  LGD1       -0.1866
     11  N11        3.7330   -1.1540   -1.0430 N.ar    1  LGD1       -0.2224
     12  N12        2.6710    0.8370   -0.2040 N.ar    1  LGD1       -0.2224
     13  C13        2.0030   -3.0990    6.2740 C.3     1  LGD1        0.0189
     14  C14        1.0980   -2.2740    5.3200 C.ar    1  LGD1       -0.0227
     15  C15        2.8100   -2.2530    7.1700 C.3     1  LGD1        0.0044
     16  C16        3.0940   -3.8700    5.4960 C.3     1  LGD1        0.0044
     17  C17        1.2780   -4.1180    7.2370 C.3     1  LGD1        0.0044
     18  C18        1.6550   -1.3310    4.4200 C.ar    1  LGD1       -0.0029
     19  C19       -0.3150   -2.4100    5.3350 C.ar    1  LGD1       -0.0029
     20  C20       -0.5430   -0.6850    3.7060 C.ar    1  LGD1        0.1271
     21  C21        0.8170   -0.4950    3.6650 C.ar    1  LGD1        0.0199
     22  C22       -1.1650   -1.6490    4.5240 C.ar    1  LGD1        0.0199
     23  C23       -0.8540   -1.1320    0.5580 C.ar    1  LGD1        0.2125
     24  C24       -1.0730   -2.2720   -0.2990 C.ar    1  LGD1        0.2327
     25  C25       -0.1680   -2.7770   -1.2000 C.ar    1  LGD1        0.2651
     26  C26        1.2130   -1.0500   -0.5770 C.ar    1  LGD1        0.2028
     27  C27       -2.5840   -3.6540    1.0820 C.ar    1  LGD1        0.1793
     28  C28        2.6530   -0.4390   -0.6690 C.ar    1  LGD1        0.1990
     29  C29        0.2780   -4.5800   -2.8690 C.3     1  LGD1        0.2426
     30  C30       -1.6080   -4.3260    1.8340 C.ar    1  LGD1        0.1730
     31  C31       -3.9050   -3.7190    1.4640 C.ar    1  LGD1        0.0406
     32  C32       -1.9550   -5.0070    2.9750 C.ar    1  LGD1        0.0401
     33  C33        1.2690   -5.3310   -1.9830 C.3     1  LGD1        0.2292
     34  C34       -4.3340   -4.4310    2.5710 C.ar    1  LGD1        0.0033
     35  C35       -3.3070   -5.0480    3.3860 C.ar    1  LGD1        0.0033
     36  C36        4.9310   -0.5370   -0.9630 C.ar    1  LGD1        0.1023
     37  C37        3.8730    1.5130   -0.2050 C.ar    1  LGD1        0.1023
     38  C38        4.9600    0.8420   -0.7410 C.ar    1  LGD1        0.0414
     39  C39        0.7180   -3.8910    2.1960 C.3     1  LGD1        0.2526
@<TRIPOS>BOND
     1    33     7    1
     2    33    29    1
     3     5    29    1
     4     5    25    1
     5    10    25   ar
     6    10    26   ar
     7    36    11   ar
     8    36    38   ar
     9    11    28   ar
    10    25    24   ar
    11    38    37   ar
    12    34    31   ar
    13    34    35   ar
    14    28    26    1
    15    28    12   ar
    16    26     9   ar
    17    31    27   ar
    18    37    12   ar
    19    24     4    1
    20    24    23   ar
    21     4    27    1
    22    27    30   ar
    23    35    32   ar
    24    15    13    1
    25     9    23   ar
    26    23     8    1
    27    30    32   ar
    28    30     6    1
    29     6    39    1
    30     8     1    1
    31    18    14   ar
    32    18    21   ar
    33    13    14    1
    34    13    17    1
    35    13    16    1
    36    14    19   ar
    37    21    20   ar
    38    20     1    1
    39    20    22   ar
    40    19    22   ar
    41     1     2    2
    42     1     3    2
@<TRIPOS>MOLECULE
123882
 66 71 0 0 0
SMALL
GASTEIGER

@<TRIPOS>ATOM
      1 S          -2.1756   -3.6576    1.1522 S.2     3  UNK33      -0.0993
      2 O           7.8276   -3.1637   -2.6362 O.2     1  UNK11      -0.2755
      3 O           4.6375   -5.9505    5.5079 O.2     4  LEU44      -0.2738
      4 O           2.7920   -2.1764   -2.4041 O.2     1  UNK11      -0.2737
      5 O           3.9602   -3.6815    2.1344 O.2     5  TRP55      -0.2738
      6 O           5.5450   -1.3319    0.2838 O.2     6  ASP66      -0.2738
      7 O           0.1485   -5.9911    4.2106 O.2     3  UNK33      -0.2734
      8 O           2.4040   -5.9874    0.4218 O.2     2  ASP22      -0.2737
      9 OD1         8.3823   -3.4656    3.7078 O.co2   6  ASP66      -0.5497
     10 OD2         9.6349   -4.4926    2.0907 O.co2   6  ASP66      -0.5497
     11 OD1        -1.0168   -5.0940   -2.2152 O.co2   2  ASP22      -0.5497
     12 OD2        -0.4260   -7.1985   -1.5712 O.co2   2  ASP22      -0.5497
     13 N           7.4216   -3.5202   -4.8491 N.am    1  UNK11      -0.2984
     14 N           8.0520   -2.3035   -7.3972 N.pl3   1  UNK11      -0.3269
     15 N           5.6615   -3.3833   -0.7459 N.am    1  UNK11      -0.3020
     16 N           3.2702   -4.3553    4.5932 N.am    5  TRP55      -0.3022
     17 N           2.0185   -6.1525    2.9599 N.am    4  LEU44      -0.3022
     18 N           5.9615   -2.7713    2.7777 N.am    6  ASP66      -0.3021
     19 N           3.0964   -4.3192   -1.6292 N.am    2  ASP22      -0.3021
     20 N           0.5230   -4.7197    0.7404 N.am    3  UNK33      -0.2984
     21 NE1         1.2493   -0.4207    2.7178 N.ar    5  TRP55      -0.3604
     22 C           6.5099   -3.6522   -5.9955 C.3     1  UNK11       0.0304
     23 C           8.8237   -3.2471   -5.1846 C.3     1  UNK11       0.0304
     24 C           7.2441   -3.5432   -7.3455 C.3     1  UNK11       0.0280
     25 C           8.9291   -2.0980   -6.2036 C.3     1  UNK11       0.0280
     26 C           7.0162   -3.4050   -3.5289 C.2     1  UNK11       0.2179
     27 C           5.5615   -3.6905   -3.2144 C.3     1  UNK11       0.0510
     28 C           5.0702   -2.9096   -1.9909 C.3     1  UNK11       0.1076
     29 CA          2.8619   -6.7125    4.0187 C.3     4  LEU44       0.0997
     30 CB          3.7003   -7.9162    3.5188 C.3     4  LEU44      -0.0236
     31 CA          4.2661   -3.2854    4.5118 C.3     5  TRP55       0.1034
     32 C           7.5504   -1.1354   -7.9886 C.ar    1  UNK11       0.0298
     33 CG          4.6529   -7.7034    2.3168 C.3     4  LEU44      -0.0446
     34 CB          3.7259   -1.9339    4.9865 C.3     5  TRP55       0.0013
     35 C           3.7088   -5.6555    4.7591 C.2     4  LEU44       0.2340
     36 CA          6.5891   -3.1759    1.5187 C.3     6  ASP66       0.1045
     37 C           3.5333   -3.0509   -1.9581 C.2     1  UNK11       0.2344
     38 CG          2.5182   -1.4332    4.2461 C.ar    5  TRP55      -0.0201
     39 C           4.6959   -3.2559    3.0306 C.2     5  TRP55       0.2343
     40 C           5.8737   -2.5174    0.3169 C.2     6  ASP66       0.2343
     41 CA          1.6754   -4.6405   -1.4407 C.3     2  ASP22       0.1045
     42 CD2         5.8431   -6.8030    2.6273 C.3     4  LEU44      -0.0626
     43 CD1         5.1835   -9.0512    1.8133 C.3     4  LEU44      -0.0626
     44 C          -0.1171   -5.5422    1.7707 C.3     3  UNK33       0.1311
     45 C           8.3278    0.0391   -8.0318 C.ar    1  UNK11      -0.0407
     46 C           6.2847   -1.0547   -8.5905 C.ar    1  UNK11      -0.0407
     47 CD2         1.1398   -1.6930    4.5422 C.ar    5  TRP55       0.0029
     48 C           0.6821   -5.8379    3.1080 C.2     3  UNK33       0.2390
     49 CB          8.0724   -2.8364    1.4664 C.3     6  ASP66       0.0138
     50 CD1         2.5385   -0.6358    3.1183 C.ar    5  TRP55       0.0060
     51 CE2         0.3727   -1.0170    3.5929 C.ar    5  TRP55       0.0467
     52 C           1.5771   -5.1812   -0.0035 C.2     2  ASP22       0.2345
     53 CB          1.2381   -5.7467   -2.3949 C.3     2  ASP22       0.0138
     54 C           7.8562    1.2312   -8.5948 C.ar    1  UNK11      -0.0600
     55 C           5.8074    0.1315   -9.1666 C.ar    1  UNK11      -0.0600
     56 C          -1.5032   -4.9478    2.0880 C.ar    3  UNK33       0.0189
     57 CE3         0.4695   -2.4582    5.5200 C.ar    5  TRP55      -0.0523
     58 C           6.5907    1.2781   -9.1618 C.ar    1  UNK11      -0.0616
     59 CZ2        -1.0270   -1.0347    3.5942 C.ar    5  TRP55      -0.0378
     60 CG          8.7639   -3.6808    2.5225 C.2     6  ASP66       0.0440
     61 CZ3        -0.9300   -2.5028    5.5243 C.ar    5  TRP55      -0.0611
     62 C          -2.4285   -5.3666    3.0347 C.ar    3  UNK33      -0.0493
     63 CH2        -1.6646   -1.7883    4.5827 C.ar    5  TRP55      -0.0598
     64 CG         -0.2124   -6.0482   -2.0424 C.2     2  ASP22       0.0440
     65 C          -3.6383   -4.6132    3.0201 C.ar    3  UNK33      -0.0544
     66 C          -3.6332   -3.6579    2.0336 C.ar    3  UNK33      -0.0240
@<TRIPOS>BOND
     1     1    56   ar
     2     1    66   ar
     3     2    26    2
     4     3    35    2
     5     4    37    2
     6     5    39    2
     7     6    40    2
     8     7    48    2
     9     8    52    2
    10     9    60   ar
    11    10    60   ar
    12    11    64   ar
    13    12    64   ar
    14    13    22    1
    15    13    23    1
    16    14    24    1
    17    14    25    1
    18    14    32    1
    19    15    28    1
    20    15    40   am
    21    16    35   am
    22    16    31    1
    23    17    48   am
    24    17    29    1
    25    18    39   am
    26    18    36    1
    27    19    37   am
    28    19    41    1
    29    20    52   am
    30    20    44    1
    31    21    50   ar
    32    21    51   ar
    33    22    24    1
    34    23    25    1
    35    26    27    1
    36    26    13   am
    37    28    37    1
    38    28    27    1
    39    29    35    1
    40    29    30    1
    41    30    33    1
    42    31    39    1
    43    31    34    1
    44    32    45   ar
    45    32    46   ar
    46    33    43    1
    47    33    42    1
    48    34    38    1
    49    36    40    1
    50    36    49    1
    51    38    47   ar
    52    38    50   ar
    53    41    52    1
    54    41    53    1
    55    44    48    1
    56    44    56    1
    57    45    54   ar
    58    46    55   ar
    59    47    57   ar
    60    47    51   ar
    61    49    60    1
    62    51    59   ar
    63    53    64    1
    64    54    58   ar
    65    55    58   ar
    66    56    62   ar
    67    57    61   ar
    68    59    63   ar
    69    61    63   ar
    70    62    65   ar
    71    65    66   ar
