@<TRIPOS>MOLECULE
BOSENTAN_50CONFORMERS.pdb
 39 42 0 0 0
SMALL
GASTEIGER

@<TRIPOS>ATOM
      1  S1        -1.4970   -0.2320    3.0730 S.O2    1  LGD1        0.0943
      2  O2        -0.3630    0.7980    3.0210 O.2     1  LGD1       -0.1483
      3  O3        -2.8400    0.1150    3.5770 O.2     1  LGD1       -0.1483
      4  O4        -2.4860   -2.8570   -0.3780 O.3     1  LGD1       -0.4427
      5  O5        -0.5060   -3.8200   -2.0000 O.3     1  LGD1       -0.4552
      6  O6        -1.0740   -5.1560    0.5820 O.3     1  LGD1       -0.4684
      7  O7        -2.5120   -4.9770   -3.9700 O.3     1  LGD1       -0.2162
      8  N8        -1.8240   -0.6470    1.4540 N.pl3   1  LGD1       -0.0737
      9  N9         0.3590   -0.6120    0.4410 N.ar    1  LGD1       -0.2027
     10  N10        0.9800   -2.0580   -1.5100 N.ar    1  LGD1       -0.1866
     11  N11        3.6690   -1.0400   -1.1310 N.ar    1  LGD1       -0.2224
     12  N12        2.6010    0.7470    0.2570 N.ar    1  LGD1       -0.2224
     13  C13       -0.0170   -5.3240    5.9540 C.3     1  LGD1        0.0189
     14  C14       -0.3260   -4.0730    5.1580 C.ar    1  LGD1       -0.0227
     15  C15       -0.8510   -6.5200    5.5670 C.3     1  LGD1        0.0044
     16  C16       -0.1920   -5.1420    7.4980 C.3     1  LGD1        0.0044
     17  C17        1.4200   -5.8750    5.6710 C.3     1  LGD1        0.0044
     18  C18        0.6590   -3.3060    4.5660 C.ar    1  LGD1       -0.0029
     19  C19       -1.6760   -3.6790    5.0810 C.ar    1  LGD1       -0.0029
     20  C20       -1.0170   -1.8220    3.7060 C.ar    1  LGD1        0.1271
     21  C21        0.3170   -2.1970    3.7830 C.ar    1  LGD1        0.0199
     22  C22       -2.0380   -2.5950    4.2780 C.ar    1  LGD1        0.0199
     23  C23       -0.8900   -1.1790    0.5640 C.ar    1  LGD1        0.2125
     24  C24       -1.1780   -2.1780   -0.3560 C.ar    1  LGD1        0.2327
     25  C25       -0.2000   -2.6900   -1.2210 C.ar    1  LGD1        0.2651
     26  C26        1.2420   -1.0950   -0.5640 C.ar    1  LGD1        0.2028
     27  C27       -2.9640   -3.5970    0.7090 C.ar    1  LGD1        0.1793
     28  C28        2.6130   -0.4120   -0.4220 C.ar    1  LGD1        0.1990
     29  C29       -0.8110   -3.3870   -3.3530 C.3     1  LGD1        0.2426
     30  C30       -2.2610   -4.7320    1.1870 C.ar    1  LGD1        0.1730
     31  C31       -4.0730   -3.1600    1.4070 C.ar    1  LGD1        0.0406
     32  C32       -2.8110   -5.4740    2.2720 C.ar    1  LGD1        0.0401
     33  C33       -1.1230   -4.7170   -4.0600 C.3     1  LGD1        0.2292
     34  C34       -4.6190   -3.9340    2.4340 C.ar    1  LGD1        0.0033
     35  C35       -4.0120   -5.1100    2.7860 C.ar    1  LGD1        0.0033
     36  C36        4.8530   -0.3880   -1.0650 C.ar    1  LGD1        0.1023
     37  C37        3.8370    1.3390    0.3860 C.ar    1  LGD1        0.1023
     38  C38        4.9320    0.7620   -0.2420 C.ar    1  LGD1        0.0414
     39  C39        0.0140   -5.4020    1.4970 C.3     1  LGD1        0.2526
@<TRIPOS>BOND
     1    33     7    1
     2    33    29    1
     3     5    29    1
     4     5    25    1
     5    10    25   ar
     6    10    26   ar
     7    36    11   ar
     8    36    38   ar
     9    11    28   ar
    10    25    24   ar
    11    38    37   ar
    12    34    31   ar
    13    34    35   ar
    14    28    26    1
    15    28    12   ar
    16    26     9   ar
    17    31    27   ar
    18    37    12   ar
    19    24     4    1
    20    24    23   ar
    21     4    27    1
    22    27    30   ar
    23    35    32   ar
    24    15    13    1
    25     9    23   ar
    26    23     8    1
    27    30    32   ar
    28    30     6    1
    29     6    39    1
    30     8     1    1
    31    18    14   ar
    32    18    21   ar
    33    13    14    1
    34    13    17    1
    35    13    16    1
    36    14    19   ar
    37    21    20   ar
    38    20     1    1
    39    20    22   ar
    40    19    22   ar
    41     1     2    2
    42     1     3    2
@<TRIPOS>MOLECULE
16004692
 32 34 0 0 0
SMALL
GASTEIGER

@<TRIPOS>ATOM
      1 BR         -5.7597   -5.8531    1.1042 Br      1  LIG11      -0.0503
      2 BR          5.6561    2.6889   -0.8451 Br      1  LIG11      -0.0472
      3 S          -3.5575   -2.0017    6.3213 S.O2    1  LIG11       0.1104
      4 O           0.4624   -3.9044    2.6285 O.3     1  LIG11      -0.4724
      5 O          -4.8116   -2.1714    5.6304 O.2     1  LIG11      -0.1381
      6 O          -2.8749   -3.0782    6.9905 O.2     1  LIG11      -0.1381
      7 O           3.4386   -2.5446    0.9213 O.3     1  LIG11      -0.4590
      8 N          -3.7529   -0.7134    7.3867 N.3     1  LIG11      -0.1771
      9 N          -2.5642   -1.2041    5.2506 N.pl3   1  LIG11      -0.1889
     10 N          -0.3312   -1.2657    5.6366 N.ar    1  LIG11      -0.2186
     11 N           1.2033   -2.5908    4.4128 N.ar    1  LIG11      -0.2008
     12 N           4.7337   -1.3333   -0.5345 N.ar    1  LIG11      -0.2022
     13 N           3.5208   -0.2097    1.1859 N.ar    1  LIG11      -0.2022
     14 C          -4.9823   -0.7024    8.2066 C.3     1  LIG11       0.0185
     15 C          -1.1758   -2.8071    3.9559 C.ar    1  LIG11       0.0848
     16 C          -1.3301   -1.8256    4.9302 C.ar    1  LIG11       0.1532
     17 C          -4.9793   -1.7855    9.2738 C.3     1  LIG11      -0.0416
     18 C          -2.2757   -3.5034    3.2472 C.ar    1  LIG11      -0.0094
     19 C           0.1678   -3.0930    3.7139 C.ar    1  LIG11       0.2276
     20 C          -6.2314   -1.6978   10.1339 C.3     1  LIG11      -0.0641
     21 C          -2.3075   -4.9140    3.2179 C.ar    1  LIG11      -0.0527
     22 C          -3.3125   -2.8255    2.5847 C.ar    1  LIG11      -0.0527
     23 C           1.8129   -3.8268    2.1577 C.3     1  LIG11       0.1252
     24 C          -3.3294   -5.6156    2.5703 C.ar    1  LIG11      -0.0472
     25 C          -4.3590   -3.5233    1.9662 C.ar    1  LIG11      -0.0472
     26 C           0.8938   -1.7113    5.3649 C.ar    1  LIG11       0.1219
     27 C           2.1376   -2.4794    1.5042 C.3     1  LIG11       0.1267
     28 C          -4.3603   -4.9146    1.9589 C.ar    1  LIG11       0.0179
     29 C           3.8849   -1.3102    0.5035 C.ar    1  LIG11       0.3180
     30 C           5.2345   -0.1383   -0.9167 C.ar    1  LIG11       0.0483
     31 C           4.0611    0.9549    0.7685 C.ar    1  LIG11       0.0483
     32 C           4.9308    1.0491   -0.2919 C.ar    1  LIG11       0.0543
@<TRIPOS>BOND
     1     1    28    1
     2     2    32    1
     3     3     5    2
     4     3     6    2
     5     3     8    1
     6     3     9    1
     7     4    19    1
     8     4    23    1
     9     7    27    1
    10     7    29    1
    11     8    14    1
    12     9    16    1
    13    10    16   ar
    14    10    26   ar
    15    11    19   ar
    16    11    26   ar
    17    12    29   ar
    18    12    30   ar
    19    13    29   ar
    20    13    31   ar
    21    14    17    1
    22    15    16   ar
    23    15    18    1
    24    15    19   ar
    25    17    20    1
    26    18    21   ar
    27    18    22   ar
    28    21    24   ar
    29    22    25   ar
    30    23    27    1
    31    24    28   ar
    32    25    28   ar
    33    30    32   ar
    34    31    32   ar
