@<TRIPOS>MOLECULE
BOSENTAN_50CONFORMERS.pdb
 39 42 0 0 0
SMALL
GASTEIGER

@<TRIPOS>ATOM
      1  S1        -1.7750   -1.4220    3.0310 S.O2    1  LGD1        0.0943
      2  O2        -0.3720   -1.8370    3.2830 O.2     1  LGD1       -0.1483
      3  O3        -2.4380   -0.3710    3.8160 O.2     1  LGD1       -0.1483
      4  O4        -2.4990   -2.5420   -0.3450 O.3     1  LGD1       -0.4427
      5  O5        -0.5620   -3.8260   -1.9310 O.3     1  LGD1       -0.4552
      6  O6        -4.2670   -4.6770   -0.4750 O.3     1  LGD1       -0.4684
      7  O7        -0.4520   -5.9720   -4.1090 O.3     1  LGD1       -0.2162
      8  N8        -1.8060   -0.8820    1.3950 N.pl3   1  LGD1       -0.0737
      9  N9         0.4440   -0.5550    0.4500 N.ar    1  LGD1       -0.2027
     10  N10        0.9780   -2.1070   -1.3780 N.ar    1  LGD1       -0.1866
     11  N11        2.9100    0.1650   -1.9740 N.ar    1  LGD1       -0.2224
     12  N12        3.2540   -0.2020    0.5040 N.ar    1  LGD1       -0.2224
     13  C13       -5.7970   -6.1310    3.1490 C.3     1  LGD1        0.0189
     14  C14       -4.7580   -4.9650    3.1310 C.ar    1  LGD1       -0.0227
     15  C15       -5.8640   -6.7090    4.5340 C.3     1  LGD1        0.0044
     16  C16       -5.3460   -7.2180    2.1240 C.3     1  LGD1        0.0044
     17  C17       -7.2000   -5.6790    2.6790 C.3     1  LGD1        0.0044
     18  C18       -5.1530   -3.6270    3.0320 C.ar    1  LGD1       -0.0029
     19  C19       -3.3580   -5.1810    3.1990 C.ar    1  LGD1       -0.0029
     20  C20       -2.8730   -2.8300    3.0340 C.ar    1  LGD1        0.1271
     21  C21       -4.2750   -2.5730    2.9300 C.ar    1  LGD1        0.0199
     22  C22       -2.3600   -4.1460    3.1780 C.ar    1  LGD1        0.0199
     23  C23       -0.8300   -1.1160    0.4760 C.ar    1  LGD1        0.2125
     24  C24       -1.1910   -2.0920   -0.4040 C.ar    1  LGD1        0.2327
     25  C25       -0.2650   -2.6710   -1.2180 C.ar    1  LGD1        0.2651
     26  C26        1.2140   -1.0290   -0.5830 C.ar    1  LGD1        0.2028
     27  C27       -3.4290   -2.5360   -1.4160 C.ar    1  LGD1        0.1793
     28  C28        2.5990   -0.3710   -0.6660 C.ar    1  LGD1        0.1990
     29  C29        0.5560   -4.7090   -2.1780 C.3     1  LGD1        0.2426
     30  C30       -4.3080   -3.6170   -1.4650 C.ar    1  LGD1        0.1730
     31  C31       -3.3310   -1.5990   -2.4080 C.ar    1  LGD1        0.0406
     32  C32       -5.2210   -3.7040   -2.5240 C.ar    1  LGD1        0.0401
     33  C33        0.0030   -6.1020   -2.7250 C.3     1  LGD1        0.2292
     34  C34       -4.2120   -1.6650   -3.5220 C.ar    1  LGD1        0.0033
     35  C35       -5.1090   -2.7550   -3.5920 C.ar    1  LGD1        0.0033
     36  C36        4.0700    0.7320   -2.0500 C.ar    1  LGD1        0.1023
     37  C37        4.4290    0.4460    0.3750 C.ar    1  LGD1        0.1023
     38  C38        4.8450    0.9400   -0.9080 C.ar    1  LGD1        0.0414
     39  C39       -3.1530   -5.5360   -0.5240 C.3     1  LGD1        0.2526
@<TRIPOS>BOND
     1    33     7    1
     2    33    29    1
     3     5    29    1
     4     5    25    1
     5    10    25   ar
     6    10    26   ar
     7    36    11   ar
     8    36    38   ar
     9    11    28   ar
    10    25    24   ar
    11    38    37   ar
    12    34    31   ar
    13    34    35   ar
    14    28    26    1
    15    28    12   ar
    16    26     9   ar
    17    31    27   ar
    18    37    12   ar
    19    24     4    1
    20    24    23   ar
    21     4    27    1
    22    27    30   ar
    23    35    32   ar
    24    15    13    1
    25     9    23   ar
    26    23     8    1
    27    30    32   ar
    28    30     6    1
    29     6    39    1
    30     8     1    1
    31    18    14   ar
    32    18    21   ar
    33    13    14    1
    34    13    17    1
    35    13    16    1
    36    14    19   ar
    37    21    20   ar
    38    20     1    1
    39    20    22   ar
    40    19    22   ar
    41     1     2    2
    42     1     3    2
@<TRIPOS>MOLECULE
159594
 37 40 0 0 0
SMALL
GASTEIGER

@<TRIPOS>ATOM
      1 O          -0.6986   -6.1270   -0.6292 O.co2   1  LIG11      -0.5493
      2 O          -0.0588   -4.3738    0.6906 O.co2   1  LIG11      -0.5493
      3 O          -3.3786   -0.1183   -2.8315 O.3     1  LIG11      -0.4526
      4 O          -6.1947   -8.4295    0.1117 O.2     1  LIG11      -0.2697
      5 O          -5.3538   -0.5222   -4.1532 O.3     1  LIG11      -0.4526
      6 O          -3.5334   -2.9089    6.1680 O.3     1  LIG11      -0.4951
      7 N          -4.1613   -5.8128    0.5420 N.3     1  LIG11       0.2481
      8 N          -7.2106   -6.6618    1.1745 N.am    1  LIG11      -0.2971
      9 C          -2.2667   -4.4859   -0.0638 C.3     1  LIG11       0.0574
     10 C          -3.0088   -4.8712   -1.3602 C.3     1  LIG11       0.0378
     11 C          -2.8091   -5.3497    1.0721 C.3     1  LIG11       0.0143
     12 C          -3.8643   -6.0731   -0.9184 C.3     1  LIG11      -0.0230
     13 C          -3.7456   -3.7127   -2.0455 C.ar    1  LIG11      -0.0347
     14 C          -2.9630   -4.6631    2.4161 C.ar    1  LIG11       0.0011
     15 C          -4.7035   -7.0123    1.2961 C.3     1  LIG11       0.0468
     16 C          -0.8515   -5.0295   -0.0273 C.2     1  LIG11       0.0513
     17 C          -3.1878   -2.4159   -2.0353 C.ar    1  LIG11      -0.0125
     18 C          -6.1014   -7.4392    0.8340 C.2     1  LIG11       0.2608
     19 C          -4.8847   -3.9303   -2.8627 C.ar    1  LIG11      -0.0544
     20 C          -2.3544   -5.2416    3.5426 C.ar    1  LIG11      -0.0498
     21 C          -3.7079   -3.4894    2.5863 C.ar    1  LIG11      -0.0498
     22 C          -3.8026   -1.4078   -2.7524 C.ar    1  LIG11       0.1665
     23 C          -5.4863   -2.8886   -3.5862 C.ar    1  LIG11      -0.0159
     24 C          -4.9245   -1.6366   -3.5047 C.ar    1  LIG11       0.1662
     25 C          -2.5177   -4.6883    4.8141 C.ar    1  LIG11      -0.0195
     26 C          -3.8635   -2.9363    3.8605 C.ar    1  LIG11      -0.0195
     27 C          -8.4914   -6.9808    0.5147 C.3     1  LIG11       0.0148
     28 C          -7.2038   -5.5860    2.1809 C.3     1  LIG11       0.0148
     29 C          -3.2875   -3.5405    4.9808 C.ar    1  LIG11       0.1201
     30 C          -8.6432   -6.4043   -0.8987 C.3     1  LIG11      -0.0374
     31 C          -8.2807   -5.6789    3.2778 C.3     1  LIG11      -0.0374
     32 C          -4.3572    0.4353   -3.7343 C.3     1  LIG11       0.2332
     33 C          -7.9782   -7.1891   -2.0336 C.3     1  LIG11      -0.0545
     34 C          -8.4778   -7.0525    3.9272 C.3     1  LIG11      -0.0545
     35 C          -8.4741   -8.6226   -2.1741 C.3     1  LIG11      -0.0652
     36 C          -7.2655   -7.5532    4.6914 C.3     1  LIG11      -0.0652
     37 C          -3.1395   -3.5996    7.3485 C.3     1  LIG11       0.0788
@<TRIPOS>BOND
     1     1    16   ar
     2     2    16   ar
     3     3    22    1
     4     3    32    1
     5     4    18    2
     6     5    24    1
     7     5    32    1
     8     6    29    1
     9     6    37    1
    10     7    11    1
    11     7    12    1
    12     7    15    1
    13     8    18   am
    14     8    27    1
    15     8    28    1
    16     9    10    1
    17     9    11    1
    18     9    16    1
    19    10    12    1
    20    10    13    1
    21    11    14    1
    22    13    17   ar
    23    13    19   ar
    24    14    20   ar
    25    14    21   ar
    26    15    18    1
    27    17    22   ar
    28    19    23   ar
    29    20    25   ar
    30    21    26   ar
    31    22    24   ar
    32    23    24   ar
    33    25    29   ar
    34    26    29   ar
    35    27    30    1
    36    28    31    1
    37    30    33    1
    38    31    34    1
    39    33    35    1
    40    34    36    1
