@<TRIPOS>MOLECULE
BOSENTAN_50CONFORMERS.pdb
 39 42 0 0 0
SMALL
GASTEIGER

@<TRIPOS>ATOM
      1  S1        -1.7190   -1.1980    3.1480 S.O2    1  LGD1        0.0943
      2  O2        -1.0650   -2.5580    3.0820 O.2     1  LGD1       -0.1483
      3  O3        -1.0440   -0.0940    3.8910 O.2     1  LGD1       -0.1483
      4  O4        -2.4210   -2.9380   -0.3040 O.3     1  LGD1       -0.4427
      5  O5        -0.4360   -3.8110   -2.0740 O.3     1  LGD1       -0.4552
      6  O6        -4.1480   -4.6140    1.0730 O.3     1  LGD1       -0.4684
      7  O7         0.3790   -6.3290   -1.3010 O.3     1  LGD1       -0.2162
      8  N8        -1.7990   -0.6700    1.5370 N.pl3   1  LGD1       -0.0737
      9  N9         0.3940   -0.5880    0.3840 N.ar    1  LGD1       -0.2027
     10  N10        0.9270   -2.1020   -1.4260 N.ar    1  LGD1       -0.1866
     11  N11        3.3820   -0.9880   -1.4720 N.ar    1  LGD1       -0.2224
     12  N12        2.2790    1.1290   -0.8550 N.ar    1  LGD1       -0.2224
     13  C13       -7.5590   -1.0820    4.8620 C.3     1  LGD1        0.0189
     14  C14       -6.1270   -1.0490    4.3390 C.ar    1  LGD1       -0.0227
     15  C15       -8.3990   -2.3140    4.5870 C.3     1  LGD1        0.0044
     16  C16       -8.3430    0.0760    4.2990 C.3     1  LGD1        0.0044
     17  C17       -7.6530   -0.8810    6.4090 C.3     1  LGD1        0.0044
     18  C18       -5.3940    0.1080    3.9290 C.ar    1  LGD1       -0.0029
     19  C19       -5.4270   -2.2600    4.3400 C.ar    1  LGD1       -0.0029
     20  C20       -3.4020   -1.1640    3.6230 C.ar    1  LGD1        0.1271
     21  C21       -4.0470    0.0480    3.5190 C.ar    1  LGD1        0.0199
     22  C22       -4.1070   -2.3380    3.8750 C.ar    1  LGD1        0.0199
     23  C23       -0.8690   -1.1110    0.5130 C.ar    1  LGD1        0.2125
     24  C24       -1.2210   -2.1680   -0.3820 C.ar    1  LGD1        0.2327
     25  C25       -0.2100   -2.7390   -1.1960 C.ar    1  LGD1        0.2651
     26  C26        1.1950   -1.0880   -0.5480 C.ar    1  LGD1        0.2028
     27  C27       -3.7060   -2.5140   -0.0890 C.ar    1  LGD1        0.1793
     28  C28        2.4070   -0.2460   -0.9000 C.ar    1  LGD1        0.1990
     29  C29        0.6550   -4.4970   -2.7390 C.3     1  LGD1        0.2426
     30  C30       -4.5570   -3.3220    0.6690 C.ar    1  LGD1        0.1730
     31  C31       -4.1460   -1.2830   -0.5860 C.ar    1  LGD1        0.0406
     32  C32       -5.7720   -2.8520    1.1050 C.ar    1  LGD1        0.0401
     33  C33        1.3350   -5.4170   -1.7390 C.3     1  LGD1        0.2292
     34  C34       -5.3860   -0.7930   -0.1220 C.ar    1  LGD1        0.0033
     35  C35       -6.1520   -1.5580    0.7430 C.ar    1  LGD1        0.0033
     36  C36        4.4450   -0.3090   -1.9620 C.ar    1  LGD1        0.1023
     37  C37        3.3930    1.7710   -1.2500 C.ar    1  LGD1        0.1023
     38  C38        4.4320    1.0600   -1.7550 C.ar    1  LGD1        0.0414
     39  C39       -4.5040   -5.5700    0.0920 C.3     1  LGD1        0.2526
@<TRIPOS>BOND
     1    33     7    1
     2    33    29    1
     3     5    29    1
     4     5    25    1
     5    10    25   ar
     6    10    26   ar
     7    36    11   ar
     8    36    38   ar
     9    11    28   ar
    10    25    24   ar
    11    38    37   ar
    12    34    31   ar
    13    34    35   ar
    14    28    26    1
    15    28    12   ar
    16    26     9   ar
    17    31    27   ar
    18    37    12   ar
    19    24     4    1
    20    24    23   ar
    21     4    27    1
    22    27    30   ar
    23    35    32   ar
    24    15    13    1
    25     9    23   ar
    26    23     8    1
    27    30    32   ar
    28    30     6    1
    29     6    39    1
    30     8     1    1
    31    18    14   ar
    32    18    21   ar
    33    13    14    1
    34    13    17    1
    35    13    16    1
    36    14    19   ar
    37    21    20   ar
    38    20     1    1
    39    20    22   ar
    40    19    22   ar
    41     1     2    2
    42     1     3    2
@<TRIPOS>MOLECULE
6433095
 41 45 0 0 0
SMALL
GASTEIGER

@<TRIPOS>ATOM
      1 S          -1.4465   -1.2028    3.0515 S.O2    1  LIG11       0.0908
      2 O          -2.2622   -2.9847    0.1474 O.3     1  LIG11      -0.4435
      3 O          -0.4853   -3.9193   -1.6475 O.3     1  LIG11      -0.4715
      4 O          -1.1081   -2.6033    2.8879 O.2     1  LIG11      -0.1484
      5 O          -0.6865   -0.3457    3.9367 O.2     1  LIG11      -0.1484
      6 O          -4.4325   -4.1261    1.5231 O.3     1  LIG11      -0.4914
      7 O           2.6454   -5.4599   -2.8574 O.3     1  LIG11      -0.3917
      8 N          -1.5541   -0.4585    1.5302 N.pl3   1  LIG11      -0.1950
      9 N           0.3263   -0.3773    0.2289 N.ar    1  LIG11      -0.2073
     10 N           0.8853   -2.0350   -1.3754 N.ar    1  LIG11      -0.1899
     11 N          -3.8607   -0.0981    3.0243 N.ar    1  LIG11      -0.2351
     12 N           4.7376    1.1910   -1.7393 N.ar    1  LIG11      -0.2552
     13 N           5.8866    3.0511    0.1207 N.ar    1  LIG11      -0.5621
     14 N           4.0380    2.9620    1.4198 N.ar    1  LIG11      -0.1535
     15 N           5.9281    3.8578    1.1860 N.ar    1  LIG11      -0.3597
     16 N           4.8546    3.8418    1.9816 N.ar    1  LIG11      -0.0878
     17 C          -0.7944   -1.0663    0.5024 C.ar    1  LIG11       0.1882
     18 C          -1.1617   -2.2338   -0.1391 C.ar    1  LIG11       0.2307
     19 C          -0.2385   -2.6964   -1.0512 C.ar    1  LIG11       0.2641
     20 C           1.1265   -0.8879   -0.7178 C.ar    1  LIG11       0.1659
     21 C          -3.1594   -1.1273    3.5820 C.ar    1  LIG11       0.1969
     22 C           2.3566   -0.1611   -1.0660 C.ar    1  LIG11       0.0227
     23 C          -3.6916   -2.1118    4.3948 C.ar    1  LIG11      -0.0160
     24 C          -3.5200   -2.4576   -0.0355 C.ar    1  LIG11       0.1702
     25 C           2.8909    0.8340   -0.2302 C.ar    1  LIG11      -0.0252
     26 C          -5.8001   -0.9464    4.2066 C.ar    1  LIG11      -0.0322
     27 C          -5.0422   -2.0082    4.7143 C.ar    1  LIG11      -0.0541
     28 C           3.0539   -0.4462   -2.2498 C.ar    1  LIG11      -0.0328
     29 C           0.5124   -4.3548   -2.5756 C.3     1  LIG11       0.1143
     30 C           4.0756    1.4766   -0.5875 C.ar    1  LIG11       0.0708
     31 C          -5.1612   -0.0238    3.3795 C.ar    1  LIG11       0.0327
     32 C          -4.5723   -3.0564    0.6758 C.ar    1  LIG11       0.1621
     33 C          -3.7967   -1.3831   -0.8906 C.ar    1  LIG11      -0.0157
     34 C           4.2150    0.2458   -2.5408 C.ar    1  LIG11       0.0289
     35 C          -7.2405   -0.7702    4.5735 C.3     1  LIG11      -0.0383
     36 C           1.7315   -4.9646   -1.8838 C.3     1  LIG11       0.0783
     37 C          -5.8596   -2.5184    0.6061 C.ar    1  LIG11      -0.0163
     38 C          -5.0917   -0.8643   -0.9713 C.ar    1  LIG11      -0.0581
     39 C          -6.1193   -1.4238   -0.2150 C.ar    1  LIG11      -0.0581
     40 C           4.6728    2.4873    0.2896 C.ar    1  LIG11       0.0207
     41 C          -3.7631   -5.2411    0.9333 C.3     1  LIG11       0.0790
@<TRIPOS>BOND
     1     1     4    2
     2     1     5    2
     3     1     8    1
     4     1    21    1
     5     2    18    1
     6     2    24    1
     7     3    19    1
     8     3    29    1
     9     6    32    1
    10     6    41    1
    11     7    36    1
    12     8    17    1
    13     9    17   ar
    14     9    20   ar
    15    10    19   ar
    16    10    20   ar
    17    11    21   ar
    18    11    31   ar
    19    12    30   ar
    20    12    34   ar
    21    13    15   ar
    22    13    40   ar
    23    14    16   ar
    24    14    40   ar
    25    15    16   ar
    26    17    18   ar
    27    18    19   ar
    28    20    22    1
    29    21    23   ar
    30    22    25   ar
    31    22    28   ar
    32    23    27   ar
    33    24    32   ar
    34    24    33   ar
    35    25    30   ar
    36    26    27   ar
    37    26    31   ar
    38    26    35    1
    39    28    34   ar
    40    29    36    1
    41    30    40    1
    42    32    37   ar
    43    33    38   ar
    44    37    39   ar
    45    38    39   ar
