@<TRIPOS>MOLECULE
BOSENTAN_50CONFORMERS.pdb
 39 42 0 0 0
SMALL
GASTEIGER

@<TRIPOS>ATOM
      1  S1        -1.3660   -0.1150    2.9650 S.O2    1  LGD1        0.0943
      2  O2        -0.3450    0.9870    2.7690 O.2     1  LGD1       -0.1483
      3  O3        -2.6900    0.1410    3.5490 O.2     1  LGD1       -0.1483
      4  O4        -2.4050   -2.8540   -0.1530 O.3     1  LGD1       -0.4427
      5  O5        -0.5460   -3.7560   -2.0460 O.3     1  LGD1       -0.4552
      6  O6        -0.8160   -5.0270    0.8790 O.3     1  LGD1       -0.4684
      7  O7        -0.5110   -6.7440   -2.2490 O.3     1  LGD1       -0.2162
      8  N8        -1.8210   -0.6980    1.4120 N.pl3   1  LGD1       -0.0737
      9  N9         0.4140   -0.5800    0.3940 N.ar    1  LGD1       -0.2027
     10  N10        0.9880   -2.0990   -1.3950 N.ar    1  LGD1       -0.1866
     11  N11        3.3950   -0.7920   -1.7030 N.ar    1  LGD1       -0.2224
     12  N12        2.9800    0.5030    0.3180 N.ar    1  LGD1       -0.2224
     13  C13        1.8080   -4.5960    5.8740 C.3     1  LGD1        0.0189
     14  C14        1.0040   -3.4660    5.1740 C.ar    1  LGD1       -0.0227
     15  C15        2.1120   -5.6800    4.8570 C.3     1  LGD1        0.0044
     16  C16        1.0630   -5.4280    7.0090 C.3     1  LGD1        0.0044
     17  C17        3.0620   -4.0440    6.5230 C.3     1  LGD1        0.0044
     18  C18       -0.3850   -3.2210    5.4020 C.ar    1  LGD1       -0.0029
     19  C19        1.6560   -2.6570    4.2610 C.ar    1  LGD1       -0.0029
     20  C20       -0.3940   -1.3840    3.8730 C.ar    1  LGD1        0.1271
     21  C21       -1.0570   -2.2030    4.7700 C.ar    1  LGD1        0.0199
     22  C22        0.9880   -1.5490    3.6490 C.ar    1  LGD1        0.0199
     23  C23       -0.8700   -1.1650    0.5100 C.ar    1  LGD1        0.2125
     24  C24       -1.1790   -2.2420   -0.2860 C.ar    1  LGD1        0.2327
     25  C25       -0.2200   -2.6970   -1.2090 C.ar    1  LGD1        0.2651
     26  C26        1.2150   -1.0410   -0.5730 C.ar    1  LGD1        0.2028
     27  C27       -2.8340   -3.5430    1.0090 C.ar    1  LGD1        0.1793
     28  C28        2.6270   -0.3960   -0.6610 C.ar    1  LGD1        0.1990
     29  C29        0.5950   -4.5440   -2.3930 C.3     1  LGD1        0.2426
     30  C30       -2.0200   -4.6020    1.5290 C.ar    1  LGD1        0.1730
     31  C31       -3.9100   -3.0570    1.7580 C.ar    1  LGD1        0.0406
     32  C32       -2.3750   -5.1750    2.7290 C.ar    1  LGD1        0.0401
     33  C33        0.0760   -5.8030   -3.1590 C.3     1  LGD1        0.2292
     34  C34       -4.2060   -3.5890    3.0330 C.ar    1  LGD1        0.0033
     35  C35       -3.4170   -4.6480    3.4780 C.ar    1  LGD1        0.0033
     36  C36        4.7210   -0.3690   -1.6230 C.ar    1  LGD1        0.1023
     37  C37        4.2420    1.0110    0.2880 C.ar    1  LGD1        0.1023
     38  C38        5.1370    0.5070   -0.6100 C.ar    1  LGD1        0.0414
     39  C39        0.4630   -4.7420    1.5850 C.3     1  LGD1        0.2526
@<TRIPOS>BOND
     1    33     7    1
     2    33    29    1
     3     5    29    1
     4     5    25    1
     5    10    25   ar
     6    10    26   ar
     7    36    11   ar
     8    36    38   ar
     9    11    28   ar
    10    25    24   ar
    11    38    37   ar
    12    34    31   ar
    13    34    35   ar
    14    28    26    1
    15    28    12   ar
    16    26     9   ar
    17    31    27   ar
    18    37    12   ar
    19    24     4    1
    20    24    23   ar
    21     4    27    1
    22    27    30   ar
    23    35    32   ar
    24    15    13    1
    25     9    23   ar
    26    23     8    1
    27    30    32   ar
    28    30     6    1
    29     6    39    1
    30     8     1    1
    31    18    14   ar
    32    18    21   ar
    33    13    14    1
    34    13    17    1
    35    13    16    1
    36    14    19   ar
    37    21    20   ar
    38    20     1    1
    39    20    22   ar
    40    19    22   ar
    41     1     2    2
    42     1     3    2
@<TRIPOS>MOLECULE
108002
 38 42 0 0 0
SMALL
GASTEIGER

@<TRIPOS>ATOM
      1 O           1.5672   -6.1505    1.7434 O.co2   1  LIG11      -0.5495
      2 O           0.2460   -5.7812   -0.0725 O.co2   1  LIG11      -0.5495
      3 O           1.9427   -0.1535    5.8493 O.3     1  LIG11      -0.4920
      4 O           4.3959   -2.4249    1.2981 O.3     1  LIG11      -0.4858
      5 O          -4.8877   -6.0387    3.9031 O.3     1  LIG11      -0.4526
      6 O          -6.0184   -4.5337    2.3908 O.3     1  LIG11      -0.4526
      7 O           3.1340    0.7292   -2.0737 O.3     1  LIG11      -0.4950
      8 O           7.7310   -3.4705    1.4141 O.co2   1  LIG11      -0.5463
      9 O           6.6635   -2.3448    3.0862 O.co2   1  LIG11      -0.5463
     10 C           0.4698   -4.0505    1.5045 C.3     1  LIG11       0.0203
     11 C           1.6903   -3.1567    1.8955 C.3     1  LIG11       0.0218
     12 C          -0.3817   -4.2794    2.7804 C.3     1  LIG11       0.0184
     13 C           1.2067   -2.5179    3.1882 C.ar    1  LIG11      -0.0320
     14 C           0.0501   -3.1347    3.6669 C.ar    1  LIG11      -0.0353
     15 C          -1.8977   -4.3272    2.5883 C.ar    1  LIG11      -0.0356
     16 C           2.0775   -2.1093    0.8390 C.ar    1  LIG11       0.0026
     17 C           0.8214   -5.4510    1.0089 C.2     1  LIG11       0.0466
     18 C           1.8238   -1.5124    3.9320 C.ar    1  LIG11      -0.0159
     19 C          -0.4981   -2.7690    4.8902 C.ar    1  LIG11      -0.0542
     20 C           1.2545   -1.1062    5.1456 C.ar    1  LIG11       0.1208
     21 C           3.4246   -1.8062    0.5416 C.ar    1  LIG11       0.1283
     22 C          -2.6487   -5.2438    3.3500 C.ar    1  LIG11      -0.0124
     23 C          -2.5820   -3.4383    1.7251 C.ar    1  LIG11      -0.0543
     24 C           0.1100   -1.7540    5.6298 C.ar    1  LIG11      -0.0196
     25 C           1.0734   -1.3845    0.1613 C.ar    1  LIG11      -0.0510
     26 C          -4.0218   -5.2399    3.2217 C.ar    1  LIG11       0.1665
     27 C          -3.9750   -3.4695    1.5990 C.ar    1  LIG11      -0.0159
     28 C           3.7105   -0.8599   -0.4602 C.ar    1  LIG11       0.0221
     29 C           1.3751   -0.4412   -0.8243 C.ar    1  LIG11      -0.0194
     30 C          -4.6664   -4.3790    2.3654 C.ar    1  LIG11       0.1662
     31 C           2.6990   -0.1745   -1.1396 C.ar    1  LIG11       0.1236
     32 C           1.1603    0.8028    6.5638 C.3     1  LIG11       0.0893
     33 C          -6.1429   -5.6021    3.3500 C.3     1  LIG11       0.2332
     34 C           5.7633   -2.2602    0.8671 C.3     1  LIG11       0.1287
     35 C           2.0030    1.3175    7.7287 C.3     1  LIG11      -0.0215
     36 C           6.7829   -2.7788    1.9027 C.2     1  LIG11       0.0789
     37 C           2.1507    1.5957   -2.6204 C.3     1  LIG11       0.0788
     38 C           1.2163    2.2530    8.6304 C.3     1  LIG11      -0.0622
@<TRIPOS>BOND
     1     1    17   ar
     2     2    17   ar
     3     3    20    1
     4     3    32    1
     5     4    21    1
     6     4    34    1
     7     5    26    1
     8     5    33    1
     9     6    30    1
    10     6    33    1
    11     7    31    1
    12     7    37    1
    13     8    36   ar
    14     9    36   ar
    15    10    11    1
    16    10    12    1
    17    10    17    1
    18    11    13    1
    19    11    16    1
    20    12    14    1
    21    12    15    1
    22    13    14   ar
    23    13    18   ar
    24    14    19   ar
    25    15    22   ar
    26    15    23   ar
    27    16    21   ar
    28    16    25   ar
    29    18    20   ar
    30    19    24   ar
    31    20    24   ar
    32    21    28   ar
    33    22    26   ar
    34    23    27   ar
    35    25    29   ar
    36    26    30   ar
    37    27    30   ar
    38    28    31   ar
    39    29    31   ar
    40    32    35    1
    41    34    36    1
    42    35    38    1
