@<TRIPOS>MOLECULE
BOSENTAN_50CONFORMERS.pdb
 39 42 0 0 0
SMALL
GASTEIGER

@<TRIPOS>ATOM
      1  S1        -1.8260    0.8680    2.1150 S.O2    1  LGD1        0.0943
      2  O2        -3.2310    1.0510    2.6420 O.2     1  LGD1       -0.1483
      3  O3        -0.7360    0.8420    3.1650 O.2     1  LGD1       -0.1483
      4  O4        -2.4030   -2.7480   -0.1730 O.3     1  LGD1       -0.4427
      5  O5        -0.5250   -3.7950   -2.0950 O.3     1  LGD1       -0.4552
      6  O6        -2.8550   -0.2480   -1.8440 O.3     1  LGD1       -0.4684
      7  O7        -1.9730   -4.8030   -4.4000 O.3     1  LGD1       -0.2162
      8  N8        -1.8030   -0.6630    1.3420 N.pl3   1  LGD1       -0.0737
      9  N9         0.3910   -0.5170    0.4490 N.ar    1  LGD1       -0.2027
     10  N10        0.9160   -2.0940   -1.3960 N.ar    1  LGD1       -0.1866
     11  N11        2.6710    0.8150   -0.9050 N.ar    1  LGD1       -0.2224
     12  N12        3.5280   -1.4300   -0.5030 N.ar    1  LGD1       -0.2224
     13  C13       -0.5230    4.4800   -2.6490 C.3     1  LGD1        0.0189
     14  C14       -0.8270    3.6580   -1.3880 C.ar    1  LGD1       -0.0227
     15  C15       -1.6210    5.5800   -2.8100 C.3     1  LGD1        0.0044
     16  C16       -0.4680    3.6970   -4.0130 C.3     1  LGD1        0.0044
     17  C17        0.8300    5.1600   -2.6730 C.3     1  LGD1        0.0044
     18  C18        0.1540    3.3630   -0.3720 C.ar    1  LGD1       -0.0029
     19  C19       -2.1270    3.0610   -1.2730 C.ar    1  LGD1       -0.0029
     20  C20       -1.4510    1.9720    0.8310 C.ar    1  LGD1        0.1271
     21  C21       -0.1290    2.4730    0.7040 C.ar    1  LGD1        0.0199
     22  C22       -2.4280    2.2780   -0.1370 C.ar    1  LGD1        0.0199
     23  C23       -0.8140   -1.1840    0.5480 C.ar    1  LGD1        0.2125
     24  C24       -1.1190   -2.2490   -0.2350 C.ar    1  LGD1        0.2327
     25  C25       -0.2610   -2.7270   -1.2750 C.ar    1  LGD1        0.2651
     26  C26        1.1980   -1.0480   -0.5300 C.ar    1  LGD1        0.2028
     27  C27       -3.3080   -2.6450   -1.2120 C.ar    1  LGD1        0.1793
     28  C28        2.5710   -0.4720   -0.5450 C.ar    1  LGD1        0.1990
     29  C29       -0.0310   -3.6890   -3.4570 C.3     1  LGD1        0.2426
     30  C30       -3.5470   -1.4580   -2.0260 C.ar    1  LGD1        0.1730
     31  C31       -4.0820   -3.7780   -1.4710 C.ar    1  LGD1        0.0406
     32  C32       -4.5460   -1.5120   -2.9680 C.ar    1  LGD1        0.0401
     33  C33       -0.5230   -4.8470   -4.3420 C.3     1  LGD1        0.2292
     34  C34       -5.0600   -3.7560   -2.4690 C.ar    1  LGD1        0.0033
     35  C35       -5.2410   -2.6820   -3.2890 C.ar    1  LGD1        0.0033
     36  C36        3.9260    1.3540   -0.9780 C.ar    1  LGD1        0.1023
     37  C37        4.8260   -0.9910   -0.5450 C.ar    1  LGD1        0.1023
     38  C38        4.9700    0.4280   -0.7720 C.ar    1  LGD1        0.0414
     39  C39       -1.9900   -0.1040   -3.0090 C.3     1  LGD1        0.2526
@<TRIPOS>BOND
     1    33     7    1
     2    33    29    1
     3     5    29    1
     4     5    25    1
     5    10    25   ar
     6    10    26   ar
     7    36    11   ar
     8    36    38   ar
     9    11    28   ar
    10    25    24   ar
    11    38    37   ar
    12    34    31   ar
    13    34    35   ar
    14    28    26    1
    15    28    12   ar
    16    26     9   ar
    17    31    27   ar
    18    37    12   ar
    19    24     4    1
    20    24    23   ar
    21     4    27    1
    22    27    30   ar
    23    35    32   ar
    24    15    13    1
    25     9    23   ar
    26    23     8    1
    27    30    32   ar
    28    30     6    1
    29     6    39    1
    30     8     1    1
    31    18    14   ar
    32    18    21   ar
    33    13    14    1
    34    13    17    1
    35    13    16    1
    36    14    19   ar
    37    21    20   ar
    38    20     1    1
    39    20    22   ar
    40    19    22   ar
    41     1     2    2
    42     1     3    2
@<TRIPOS>MOLECULE
178103
 37 41 0 0 0
SMALL
GASTEIGER

@<TRIPOS>ATOM
      1 O          -2.1876    1.7349   -4.0814 O.co2   1  LIG11      -0.5495
      2 O          -1.4277   -0.2512   -4.8611 O.co2   1  LIG11      -0.5495
      3 O           2.0897   -2.0595    1.4525 O.3     1  LIG11      -0.4920
      4 O           0.2740    3.0220   -2.5636 O.3     1  LIG11      -0.4893
      5 O          -5.7159   -3.8531   -0.1663 O.3     1  LIG11      -0.4526
      6 O          -7.0434   -3.9213   -2.1810 O.3     1  LIG11      -0.4526
      7 O          -1.5690    5.2280    1.2209 O.3     1  LIG11      -0.4950
      8 O          -1.0161    3.5755   -5.5440 O.3     1  LIG11      -0.3917
      9 C          -1.9177   -0.0414   -2.5380 C.3     1  LIG11       0.0203
     10 C          -0.6501    0.4586   -1.8005 C.3     1  LIG11       0.0218
     11 C          -1.9001   -1.5916   -2.5122 C.3     1  LIG11       0.0184
     12 C          -0.2358   -0.7574   -0.9948 C.ar    1  LIG11      -0.0320
     13 C          -0.9243   -1.8995   -1.4005 C.ar    1  LIG11      -0.0353
     14 C          -0.8971    1.7121   -0.9647 C.ar    1  LIG11       0.0025
     15 C          -3.3048   -2.1778   -2.3910 C.ar    1  LIG11      -0.0356
     16 C          -1.8320    0.5246   -3.9534 C.2     1  LIG11       0.0466
     17 C           0.7692   -0.8401   -0.0355 C.ar    1  LIG11      -0.0159
     18 C          -0.5973   -3.1441   -0.8749 C.ar    1  LIG11      -0.0542
     19 C          -0.4409    2.9699   -1.3945 C.ar    1  LIG11       0.1278
     20 C           1.0878   -2.0838    0.5191 C.ar    1  LIG11       0.1208
     21 C          -3.8336   -2.6888   -1.1930 C.ar    1  LIG11      -0.0124
     22 C           0.3973   -3.2307    0.1037 C.ar    1  LIG11      -0.0196
     23 C          -4.1100   -2.2085   -3.5586 C.ar    1  LIG11      -0.0543
     24 C          -1.6342    1.6501    0.2324 C.ar    1  LIG11      -0.0510
     25 C          -5.0897   -3.2620   -1.2216 C.ar    1  LIG11       0.1665
     26 C          -5.3917   -2.7682   -3.5519 C.ar    1  LIG11      -0.0159
     27 C          -0.6718    4.1114   -0.6156 C.ar    1  LIG11       0.0221
     28 C          -1.8810    2.7975    0.9954 C.ar    1  LIG11      -0.0194
     29 C          -5.8460   -3.3033   -2.3685 C.ar    1  LIG11       0.1662
     30 C          -1.4024    4.0342    0.5708 C.ar    1  LIG11       0.1236
     31 C           2.7021   -3.3112    1.7584 C.3     1  LIG11       0.0893
     32 C          -6.9297   -4.3071   -0.7971 C.3     1  LIG11       0.2332
     33 C          -0.0221    4.1546   -3.3942 C.3     1  LIG11       0.1126
     34 C           3.9775   -3.0516    2.5573 C.3     1  LIG11      -0.0215
     35 C           0.2159    3.7835   -4.8584 C.3     1  LIG11       0.0783
     36 C          -2.4976    5.2381    2.2967 C.3     1  LIG11       0.0788
     37 C           5.0054   -2.2630    1.7568 C.3     1  LIG11      -0.0622
@<TRIPOS>BOND
     1     1    16   ar
     2     2    16   ar
     3     3    20    1
     4     3    31    1
     5     4    19    1
     6     4    33    1
     7     5    25    1
     8     5    32    1
     9     6    29    1
    10     6    32    1
    11     7    30    1
    12     7    36    1
    13     8    35    1
    14     9    10    1
    15     9    11    1
    16     9    16    1
    17    10    12    1
    18    10    14    1
    19    11    13    1
    20    11    15    1
    21    12    13   ar
    22    12    17   ar
    23    13    18   ar
    24    14    19   ar
    25    14    24   ar
    26    15    21   ar
    27    15    23   ar
    28    17    20   ar
    29    18    22   ar
    30    19    27   ar
    31    20    22   ar
    32    21    25   ar
    33    23    26   ar
    34    24    28   ar
    35    25    29   ar
    36    26    29   ar
    37    27    30   ar
    38    28    30   ar
    39    31    34    1
    40    33    35    1
    41    34    37    1
