@<TRIPOS>MOLECULE
BOSENTAN_50CONFORMERS.pdb
 39 42 0 0 0
SMALL
GASTEIGER

@<TRIPOS>ATOM
      1  S1        -2.1820   -0.9100    2.9730 S.O2    1  LGD1        0.0943
      2  O2        -1.1080   -1.8970    3.3120 O.2     1  LGD1       -0.1483
      3  O3        -2.2580    0.4270    3.5630 O.2     1  LGD1       -0.1483
      4  O4        -2.1710   -3.1480    0.1260 O.3     1  LGD1       -0.4427
      5  O5        -0.5010   -3.8180   -2.0560 O.3     1  LGD1       -0.4552
      6  O6        -3.2790   -5.5810    0.4230 O.3     1  LGD1       -0.4684
      7  O7        -0.5770   -5.9930   -3.6870 O.3     1  LGD1       -0.2162
      8  N8        -1.8320   -0.5590    1.3370 N.pl3   1  LGD1       -0.0737
      9  N9         0.4210   -0.6660    0.4660 N.ar    1  LGD1       -0.2027
     10  N10        0.9020   -2.0120   -1.4520 N.ar    1  LGD1       -0.1866
     11  N11        3.4630   -1.2060   -0.8480 N.ar    1  LGD1       -0.2224
     12  N12        2.3270    1.0410   -1.0720 N.ar    1  LGD1       -0.2224
     13  C13       -7.9640   -3.1650    2.4140 C.3     1  LGD1        0.0189
     14  C14       -6.4910   -2.6680    2.5690 C.ar    1  LGD1       -0.0227
     15  C15       -8.7730   -3.3680    3.6930 C.3     1  LGD1        0.0044
     16  C16       -8.0640   -4.5820    1.8060 C.3     1  LGD1        0.0044
     17  C17       -8.8840   -2.2290    1.4630 C.3     1  LGD1        0.0044
     18  C18       -6.2880   -1.3140    2.8920 C.ar    1  LGD1       -0.0029
     19  C19       -5.3330   -3.4980    2.6240 C.ar    1  LGD1       -0.0029
     20  C20       -3.8760   -1.5440    2.8700 C.ar    1  LGD1        0.1271
     21  C21       -4.9830   -0.7430    3.0600 C.ar    1  LGD1        0.0199
     22  C22       -4.0790   -2.9190    2.7390 C.ar    1  LGD1        0.0199
     23  C23       -0.8320   -1.1960    0.5800 C.ar    1  LGD1        0.2125
     24  C24       -1.1130   -2.2960   -0.2430 C.ar    1  LGD1        0.2327
     25  C25       -0.2270   -2.6740   -1.2790 C.ar    1  LGD1        0.2651
     26  C26        1.1640   -1.0570   -0.5460 C.ar    1  LGD1        0.2028
     27  C27       -3.2590   -3.4420   -0.6480 C.ar    1  LGD1        0.1793
     28  C28        2.4440   -0.2870   -0.7780 C.ar    1  LGD1        0.1990
     29  C29        0.3350   -4.9370   -1.7660 C.3     1  LGD1        0.2426
     30  C30       -3.8690   -4.6730   -0.4230 C.ar    1  LGD1        0.1730
     31  C31       -3.8740   -2.4690   -1.5190 C.ar    1  LGD1        0.0406
     32  C32       -5.0720   -4.9160   -1.1010 C.ar    1  LGD1        0.0401
     33  C33       -0.3370   -6.1880   -2.2630 C.3     1  LGD1        0.2292
     34  C34       -5.0790   -2.8050   -2.1650 C.ar    1  LGD1        0.0033
     35  C35       -5.7460   -4.0230   -1.9010 C.ar    1  LGD1        0.0033
     36  C36        4.6180   -0.5000   -1.2450 C.ar    1  LGD1        0.1023
     37  C37        3.5030    1.6250   -1.3550 C.ar    1  LGD1        0.1023
     38  C38        4.6870    0.8760   -1.4150 C.ar    1  LGD1        0.0414
     39  C39       -3.9120   -6.8740    0.7750 C.3     1  LGD1        0.2526
@<TRIPOS>BOND
     1    33     7    1
     2    33    29    1
     3     5    29    1
     4     5    25    1
     5    10    25   ar
     6    10    26   ar
     7    36    11   ar
     8    36    38   ar
     9    11    28   ar
    10    25    24   ar
    11    38    37   ar
    12    34    31   ar
    13    34    35   ar
    14    28    26    1
    15    28    12   ar
    16    26     9   ar
    17    31    27   ar
    18    37    12   ar
    19    24     4    1
    20    24    23   ar
    21     4    27    1
    22    27    30   ar
    23    35    32   ar
    24    15    13    1
    25     9    23   ar
    26    23     8    1
    27    30    32   ar
    28    30     6    1
    29     6    39    1
    30     8     1    1
    31    18    14   ar
    32    18    21   ar
    33    13    14    1
    34    13    17    1
    35    13    16    1
    36    14    19   ar
    37    21    20   ar
    38    20     1    1
    39    20    22   ar
    40    19    22   ar
    41     1     2    2
    42     1     3    2
@<TRIPOS>MOLECULE
*****
 27 29 0 0 0
SMALL
GASTEIGER

@<TRIPOS>ATOM
      1 C          -4.9629   -5.1698   -1.7186 C.ar    1  LIG11      -0.0615
      2 C          -4.4039   -4.1275   -2.4519 C.ar    1  LIG11      -0.0617
      3 C          -4.6717   -2.8121   -2.0903 C.ar    1  LIG11      -0.0615
      4 C          -5.4908   -2.5420   -0.9916 C.ar    1  LIG11      -0.0576
      5 C          -6.0851   -3.5794   -0.2405 C.ar    1  LIG11      -0.0332
      6 C          -5.7999   -4.8996   -0.6300 C.ar    1  LIG11      -0.0576
      7 C          -6.2254   -1.2106    2.4421 C.ar    1  LIG11      -0.0576
      8 C          -5.3783   -0.6516    3.4067 C.ar    1  LIG11      -0.0615
      9 C          -4.3776   -1.4167    3.9965 C.ar    1  LIG11      -0.0617
     10 C          -4.2163   -2.7428    3.6158 C.ar    1  LIG11      -0.0615
     11 C          -5.0655   -3.2998    2.6549 C.ar    1  LIG11      -0.0576
     12 N          -8.8102   -1.1400   -1.9686 N.ar    1  LIG11      -0.2002
     13 C          -8.9088   -2.4742   -1.8674 C.ar    1  LIG11       0.3190
     14 N          -9.0471   -3.3139   -2.9074 N.ar    1  LIG11      -0.2002
     15 C          -9.0597   -2.7623   -4.1316 C.ar    1  LIG11       0.0453
     16 C          -8.9579   -1.3973   -4.3335 C.ar    1  LIG11      -0.0193
     17 C          -8.8362   -0.6146   -3.2028 C.ar    1  LIG11       0.0453
     18 C          -8.7284    0.8754   -3.2946 C.3     1  LIG11      -0.0221
     19 C          -9.1728   -3.6932   -5.2989 C.3     1  LIG11      -0.0221
     20 O          -8.8684   -3.0869   -0.6409 O.3     1  LIG11      -0.4519
     21 C          -8.2000   -2.3346    0.4147 C.3     1  LIG11       0.1554
     22 C          -7.0168   -3.2220    0.9789 C.3     1  LIG11       0.0601
     23 C          -9.3003   -1.9030    1.4288 C.2     1  LIG11       0.0833
     24 O         -10.0440   -2.8143    1.8954 O.co2   1  LIG11      -0.5460
     25 O          -9.3494   -0.6586    1.6777 O.co2   1  LIG11      -0.5460
     26 C          -6.1048   -2.5529    2.0550 C.ar    1  LIG11      -0.0332
     27 C          -7.6315   -4.4983    1.6305 C.3     1  LIG11      -0.0477
@<TRIPOS>BOND
     1     1     2   ar
     2     2     3   ar
     3     3     4   ar
     4     4     5   ar
     5     5     6   ar
     6     5    22    1
     7     6     1   ar
     8     7     8   ar
     9     8     9   ar
    10     9    10   ar
    11    10    11   ar
    12    11    26   ar
    13    12    13   ar
    14    13    14   ar
    15    14    15   ar
    16    15    16   ar
    17    15    19    1
    18    16    17   ar
    19    17    12   ar
    20    17    18    1
    21    20    21    1
    22    20    13    1
    23    21    23    1
    24    21    22    1
    25    22    27    1
    26    22    26    1
    27    23    25   ar
    28    23    24   ar
    29    26     7   ar
