@<TRIPOS>MOLECULE
../1EDN/3STEPMIN_17-21_NOBACKBONE.pdb
 26 23 0 0 0
SMALL
GASTEIGER

@<TRIPOS>ATOM
      1  CB        -6.9230   -0.4370    0.2770 C.3    17  LEU17       0.0000
      2  CG        -6.4950   -1.8450   -0.1910 C.3    17  LEU17       0.0000
      3  CD1       -6.5150   -2.8060    0.9980 C.3    17  LEU17       0.0000
      4  CD2       -7.4310   -2.4140   -1.2600 C.3    17  LEU17       0.0000
      5  CB        -9.0510    3.1310    2.7840 C.3    18  ASP18       0.1258
      6  CG       -10.5470    3.4340    2.8500 C.2    18  ASP18       0.3654
      7  OD1      -11.3300    2.4930    2.5610 O.co2  18  ASP18      -0.2456
      8  OD2      -10.9050    4.5930    3.1470 O.co2  18  ASP18      -0.2456
      9  CB        -4.3960    5.7260    0.0740 C.3    19  ILE19       0.0000
     10  CG2       -3.6150    6.9530   -0.4300 C.3    19  ILE19       0.0000
     11  CG1       -3.7730    5.2100    1.3920 C.3    19  ILE19       0.0000
     12  CD1       -3.8620    6.1700    2.5820 C.3    19  ILE19       0.0000
     13  CB        -6.0900    6.2460   -4.5940 C.3    20  ILE20       0.0000
     14  CG2       -6.7980    6.2490   -5.9680 C.3    20  ILE20       0.0000
     15  CG1       -5.7140    7.6970   -4.2070 C.3    20  ILE20       0.0000
     16  CD1       -4.7810    8.4150   -5.1910 C.3    20  ILE20       0.0000
     17  CB        -9.7020    1.6830   -3.5450 C.3    21  TRP21       0.0327
     18  CG       -10.4970    2.2370   -2.3850 C.ar   21  TRP21      -0.0013
     19  CD1      -10.6860    1.5470   -1.2340 C.ar   21  TRP21       0.0946
     20  NE1      -11.3350    2.3340   -0.3040 N.ar   21  TRP21      -0.2442
     21  CE2      -11.5720    3.5950   -0.7990 C.ar   21  TRP21       0.0810
     22  CZ2      -12.0950    4.7480   -0.2000 C.ar   21  TRP21       0.0191
     23  CH2      -12.2340    5.9130   -0.9670 C.ar   21  TRP21       0.0015
     24  CZ3      -11.8800    5.8920   -2.3260 C.ar   21  TRP21       0.0001
     25  CE3      -11.3480    4.7280   -2.9100 C.ar   21  TRP21       0.0012
     26  CD2      -11.1270    3.5500   -2.1550 C.ar   21  TRP21       0.0152
@<TRIPOS>BOND
     1    14    13    1
     2    16    15    1
     3    13    15    1
     4    17    18    1
     5    25    24   ar
     6    25    26   ar
     7    18    26   ar
     8    18    19   ar
     9    24    23   ar
    10    26    21   ar
    11     4     2    1
    12    19    20   ar
    13    23    22   ar
    14    21    20   ar
    15    21    22   ar
    16    10     9    1
    17     2     1    1
    18     2     3    1
    19     9    11    1
    20    11    12    1
    21     7     6   ar
    22     5     6    1
    23     6     8   ar
@<TRIPOS>MOLECULE
./random.pdb
 39 42 0 0 0
SMALL
GASTEIGER

@<TRIPOS>ATOM
      1  S1       -11.9534    1.1213   -4.7373 S.O2    1  LGD1        0.0943
      2  O2       -11.7508    0.3262   -5.9597 O.2     1  LGD1       -0.1483
      3  O3       -13.2806    1.4718   -4.1833 O.2     1  LGD1       -0.1483
      4  O4       -10.5255    5.1543   -4.3188 O.3     1  LGD1       -0.4427
      5  O5        -8.0348    6.1302   -5.2462 O.3     1  LGD1       -0.4552
      6  O6        -8.6319    3.8924   -2.4736 O.3     1  LGD1       -0.4684
      7  O7        -7.1757    8.8540   -6.1469 O.3     1  LGD1       -0.2162
      8  N8       -11.4371    2.7160   -5.0305 N.pl3   1  LGD1       -0.0737
      9  N9        -9.1317    2.1746   -5.8439 N.ar    1  LGD1       -0.2027
     10  N10       -7.4597    3.9039   -5.9343 N.ar    1  LGD1       -0.1866
     11  N11       -6.1076    2.0594   -7.7435 N.ar    1  LGD1       -0.2224
     12  N12       -6.8773    0.4453   -6.1090 N.ar    1  LGD1       -0.2224
     13  C13       -8.5145   -1.1496   -0.0748 C.3     1  LGD1        0.0189
     14  C14       -9.3801   -0.5483   -1.2344 C.ar    1  LGD1       -0.0227
     15  C15       -7.1863   -1.8376   -0.5005 C.3     1  LGD1        0.0044
     16  C16       -8.0413   -0.0959    0.8976 C.3     1  LGD1        0.0044
     17  C17       -9.4131   -2.1488    0.6900 C.3     1  LGD1        0.0044
     18  C18      -10.3953    0.3649   -0.9720 C.ar    1  LGD1       -0.0029
     19  C19       -9.2378   -0.9470   -2.5580 C.ar    1  LGD1       -0.0029
     20  C20      -10.9643    0.5499   -3.3455 C.ar    1  LGD1        0.1271
     21  C21      -11.1484    0.8949   -1.9680 C.ar    1  LGD1        0.0199
     22  C22       -9.9390   -0.3896   -3.5915 C.ar    1  LGD1        0.0199
     23  C23      -10.0816    3.0682   -5.3360 C.ar    1  LGD1        0.2125
     24  C24       -9.6764    4.3747   -5.0612 C.ar    1  LGD1        0.2327
     25  C25       -8.3858    4.7831   -5.4153 C.ar    1  LGD1        0.2651
     26  C26       -7.9026    2.6611   -6.0915 C.ar    1  LGD1        0.2028
     27  C27      -10.7598    4.8940   -2.9147 C.ar    1  LGD1        0.1793
     28  C28       -6.8750    1.6505   -6.7234 C.ar    1  LGD1        0.1990
     29  C29       -6.7245    6.4994   -5.7904 C.3     1  LGD1        0.2426
     30  C30       -9.8761    4.2390   -2.0393 C.ar    1  LGD1        0.1730
     31  C31      -12.0402    5.2602   -2.5292 C.ar    1  LGD1        0.0406
     32  C32      -10.3588    3.8990   -0.7398 C.ar    1  LGD1        0.0401
     33  C33       -6.4568    7.9289   -5.3915 C.3     1  LGD1        0.2292
     34  C34      -12.4590    4.9047   -1.2460 C.ar    1  LGD1        0.0033
     35  C35      -11.6743    4.1625   -0.4067 C.ar    1  LGD1        0.0033
     36  C36       -5.3389    1.1180   -8.3514 C.ar    1  LGD1        0.1023
     37  C37       -6.1418   -0.5117   -6.7538 C.ar    1  LGD1        0.1023
     38  C38       -5.3503   -0.1697   -7.8282 C.ar    1  LGD1        0.0414
     39  C39       -8.2403    2.5347   -2.3599 C.3     1  LGD1        0.2526
@<TRIPOS>BOND
     1    33    29    1
     2    33     7    1
     3    29     5    1
     4    35    34   ar
     5    35    32   ar
     6    34    31   ar
     7     5    25    1
     8    32    30   ar
     9    12    37   ar
    10    12    28   ar
    11    37    38   ar
    12    31    27   ar
    13    10    25   ar
    14    10    26   ar
    15    25    24   ar
    16    39     6    1
    17    30    27   ar
    18    30     6    1
    19    27     4    1
    20    15    13    1
    21    26    28    1
    22    26     9   ar
    23    28    11   ar
    24    38    36   ar
    25    24     4    1
    26    24    23   ar
    27     9    23   ar
    28    23     8    1
    29    11    36   ar
    30    13    17    1
    31    13    14    1
    32    13    16    1
    33     8     1    1
    34    19    14   ar
    35    19    22   ar
    36    14    18   ar
    37    22    20   ar
    38    18    21   ar
    39    20    21   ar
    40    20     1    1
    41     1     2    2
    42     1     3    2
@<TRIPOS>MOLECULE
../1EDN/3STEPMIN_17-21.pdb
 47 48 0 0 0
SMALL
GASTEIGER

@<TRIPOS>ATOM
      1  N         -5.4290    0.8830   -1.1740 N.3    17  LEU17      -0.1231
      2  CA        -6.8230    0.6710   -0.7980 C.3    17  LEU17       0.1693
      3  CB        -6.9230   -0.4370    0.2770 C.3    17  LEU17       0.0284
      4  CG        -6.4950   -1.8450   -0.1910 C.3    17  LEU17       0.0019
      5  CD1       -6.5150   -2.8060    0.9980 C.3    17  LEU17       0.0001
      6  CD2       -7.4310   -2.4140   -1.2600 C.3    17  LEU17       0.0001
      7  C         -7.3990    2.0370   -0.3760 C.2    17  LEU17       0.2592
      8  O         -7.4670    2.9330   -1.2040 O.2    17  LEU17      -0.2718
      9  N         -7.7380    2.2560    0.8970 N.am   18  ASP18      -0.1960
     10  CA        -8.5130    3.4280    1.3730 C.3    18  ASP18       0.1840
     11  CB        -9.0510    3.1310    2.7840 C.3    18  ASP18       0.1450
     12  CG       -10.5470    3.4340    2.8500 C.2    18  ASP18       0.3671
     13  OD1      -11.3300    2.4930    2.5610 O.co2  18  ASP18      -0.2456
     14  OD2      -10.9050    4.5930    3.1470 O.co2  18  ASP18      -0.2456
     15  C         -7.8270    4.8120    1.2910 C.2    18  ASP18       0.2622
     16  O         -8.3890    5.8210    1.7350 O.2    18  ASP18      -0.2715
     17  N         -6.6250    4.8510    0.7010 N.am   19  ILE19      -0.1963
     18  CA        -5.9180    6.0210    0.1680 C.3    19  ILE19       0.1727
     19  CB        -4.3960    5.7260    0.0740 C.3    19  ILE19       0.0290
     20  CG2       -3.6150    6.9530   -0.4300 C.3    19  ILE19       0.0023
     21  CG1       -3.7730    5.2100    1.3920 C.3    19  ILE19       0.0022
     22  CD1       -3.8620    6.1700    2.5820 C.3    19  ILE19       0.0001
     23  C         -6.4970    6.4050   -1.2110 C.2    19  ILE19       0.2616
     24  O         -7.0070    7.5130   -1.3720 O.2    19  ILE19      -0.2715
     25  N         -6.3950    5.4980   -2.1940 N.am   20  ILE20      -0.1963
     26  CA        -6.9990    5.5490   -3.5400 C.3    20  ILE20       0.1727
     27  CB        -6.0900    6.2460   -4.5940 C.3    20  ILE20       0.0290
     28  CG2       -6.7980    6.2490   -5.9680 C.3    20  ILE20       0.0023
     29  CG1       -5.7140    7.6970   -4.2070 C.3    20  ILE20       0.0022
     30  CD1       -4.7810    8.4150   -5.1910 C.3    20  ILE20       0.0001
     31  C         -7.3180    4.1070   -3.9880 C.2    20  ILE20       0.2617
     32  O         -6.4020    3.3070   -4.2100 O.2    20  ILE20      -0.2715
     33  N         -8.6100    3.8210   -4.1620 N.am   21  TRP21      -0.1938
     34  CA        -9.2240    2.5950   -4.7020 C.3    21  TRP21       0.2021
     35  CB        -9.7020    1.6830   -3.5450 C.3    21  TRP21       0.0612
     36  CG       -10.4970    2.2370   -2.3850 C.ar   21  TRP21       0.0007
     37  CD1      -10.6860    1.5470   -1.2340 C.ar   21  TRP21       0.0946
     38  NE1      -11.3350    2.3340   -0.3040 N.ar   21  TRP21      -0.2442
     39  CE2      -11.5720    3.5950   -0.7990 C.ar   21  TRP21       0.0810
     40  CZ2      -12.0950    4.7480   -0.2000 C.ar   21  TRP21       0.0191
     41  CH2      -12.2340    5.9130   -0.9670 C.ar   21  TRP21       0.0015
     42  CZ3      -11.8800    5.8920   -2.3260 C.ar   21  TRP21       0.0001
     43  CE3      -11.3480    4.7280   -2.9100 C.ar   21  TRP21       0.0012
     44  CD2      -11.1270    3.5500   -2.1550 C.ar   21  TRP21       0.0152
     45  C        -10.3230    2.8760   -5.7330 C.2    21  TRP21       0.3845
     46  O        -11.0800    1.9620   -6.0950 O.co2  21  TRP21      -0.2437
     47  OXT      -10.4270    4.0430   -6.2080 O.co2  21  TRP21      -0.2437
@<TRIPOS>BOND
     1    47    45   ar
     2    46    45   ar
     3    28    27    1
     4    45    34    1
     5    30    29    1
     6    34    33    1
     7    34    35    1
     8    27    29    1
     9    27    26    1
    10    32    31    2
    11    33    31   am
    12    31    26    1
    13    35    36    1
    14    26    25    1
    15    43    42   ar
    16    43    44   ar
    17    36    44   ar
    18    36    37   ar
    19    42    41   ar
    20    25    23   am
    21    44    39   ar
    22    24    23    2
    23     6     4    1
    24    37    38   ar
    25    23    18    1
    26     8     7    2
    27     1     2    1
    28    41    40   ar
    29    39    38   ar
    30    39    40   ar
    31     2     7    1
    32     2     3    1
    33    20    19    1
    34     7     9   am
    35     4     3    1
    36     4     5    1
    37    19    18    1
    38    19    21    1
    39    18    17    1
    40    17    15   am
    41     9    10    1
    42    15    10    1
    43    15    16    2
    44    10    11    1
    45    21    22    1
    46    13    12   ar
    47    11    12    1
    48    12    14   ar
