@<TRIPOS>MOLECULE
../1EDN/PCA1_17-21_NOBACKBONE.pdb
 26 23 0 0 0
SMALL
GASTEIGER

@<TRIPOS>ATOM
      1  CB        -6.0770   -2.3450   -1.7480 C.3    17  LEU17       0.0000
      2  CG        -7.4170   -3.0590   -2.1890 C.3    17  LEU17       0.0000
      3  CD1       -7.4920   -3.1930   -3.7220 C.3    17  LEU17       0.0000
      4  CD2       -7.5340   -4.4610   -1.6100 C.3    17  LEU17       0.0000
      5  CB        -8.8290    0.4520    1.4200 C.3    18  ASP18       0.1258
      6  CG        -9.9140    1.2760    2.0640 C.2    18  ASP18       0.3654
      7  OD1      -10.8560    1.7240    1.3430 O.co2  18  ASP18      -0.2456
      8  OD2       -9.7710    1.5960    3.2830 O.co2  18  ASP18      -0.2456
      9  CB        -5.0730    3.3500    3.1520 C.3    19  ILE19       0.0000
     10  CG2       -4.5850    4.5470    3.9530 C.3    19  ILE19       0.0000
     11  CG1       -5.6210    2.1420    3.9730 C.3    19  ILE19       0.0000
     12  CD1       -6.7460    2.5740    4.8760 C.3    19  ILE19       0.0000
     13  CB        -2.8480    5.4620   -0.8180 C.3    20  ILE20       0.0000
     14  CG2       -2.5210    6.1670    0.5290 C.3    20  ILE20       0.0000
     15  CG1       -1.9270    4.2500   -0.9510 C.3    20  ILE20       0.0000
     16  CD1       -0.4520    4.4090   -1.0350 C.3    20  ILE20       0.0000
     17  CB        -7.1930    6.0870   -4.6010 C.3    21  TRP21       0.0066
     18  CG        -8.1480    4.9210   -4.3560 C.3    21  TRP21       0.0452
     19  CD1       -8.4270    4.3170   -3.1580 C.3    21  TRP21       0.1165
     20  NE1       -9.4680    3.4340   -3.3480 N.pl3  21  TRP21      -0.2376
     21  CE2      -10.0400    3.5420   -4.5600 C.ar   21  TRP21       0.0614
     22  CZ2      -11.2420    2.9770   -5.0990 C.ar   21  TRP21       0.0158
     23  CH2      -11.3060    3.0240   -6.5170 C.ar   21  TRP21       0.0013
     24  CZ3      -10.3640    3.7270   -7.2650 C.ar   21  TRP21      -0.0002
     25  CE3       -9.2810    4.3830   -6.7050 C.ar   21  TRP21      -0.0030
     26  CD2       -9.0950    4.3440   -5.3390 C.ar   21  TRP21      -0.0059
@<TRIPOS>BOND
     1    24    25   ar
     2    24    23   ar
     3    25    26   ar
     4    23    22   ar
     5    26    21   ar
     6    26    18    1
     7    22    21   ar
     8    17    18    1
     9    21    20    1
    10    18    19    1
    11     3     2    1
    12    20    19    1
    13     2     1    1
    14     2     4    1
    15    16    15    1
    16    15    13    1
    17    13    14    1
    18     7     6   ar
    19     5     6    1
    20     6     8   ar
    21     9    10    1
    22     9    11    1
    23    11    12    1
@<TRIPOS>MOLECULE
../BosentanConformers.pdb
 39 42 0 0 0
SMALL
GASTEIGER

@<TRIPOS>ATOM
      1  S1       -11.8440    1.4963   -7.8658 S.O2    1  LGD1        0.0943
      2  O2       -11.3245    1.3456   -9.2877 O.2     1  LGD1       -0.1483
      3  O3       -13.2649    1.8263   -7.6870 O.2     1  LGD1       -0.1483
      4  O4       -11.6680   -1.4862   -4.8223 O.3     1  LGD1       -0.4427
      5  O5        -9.1933   -2.8400   -4.1129 O.3     1  LGD1       -0.4552
      6  O6       -12.7757   -3.0940   -2.9804 O.3     1  LGD1       -0.4684
      7  O7        -9.0403   -3.6018   -1.3744 O.3     1  LGD1       -0.2162
      8  N8       -11.7006    0.0363   -6.9905 N.pl3   1  LGD1       -0.0737
      9  N9        -9.3638   -0.3831   -7.3966 N.ar    1  LGD1       -0.2027
     10  N10       -8.1519   -1.8828   -5.9620 N.ar    1  LGD1       -0.1866
     11  N11       -7.0482   -0.8874   -9.2265 N.ar    1  LGD1       -0.2224
     12  N12       -5.8165   -0.7379   -7.1005 N.ar    1  LGD1       -0.2224
     13  C13       -8.3705    5.3242   -4.4084 C.3     1  LGD1        0.0189
     14  C14       -9.3421    4.4932   -5.2469 C.ar    1  LGD1       -0.0227
     15  C15       -8.6654    6.8519   -4.5210 C.3     1  LGD1        0.0044
     16  C16       -6.9101    5.0384   -4.8941 C.3     1  LGD1        0.0044
     17  C17       -8.4596    5.0784   -2.9205 C.3     1  LGD1        0.0044
     18  C18       -9.3583    4.5546   -6.6485 C.ar    1  LGD1       -0.0029
     19  C19      -10.2670    3.5575   -4.6913 C.ar    1  LGD1       -0.0029
     20  C20      -10.9121    2.6752   -6.9533 C.ar    1  LGD1        0.1271
     21  C21      -10.0100    3.6418   -7.4655 C.ar    1  LGD1        0.0199
     22  C22      -11.0474    2.6940   -5.5144 C.ar    1  LGD1        0.0199
     23  C23      -10.4796   -0.4667   -6.6540 C.ar    1  LGD1        0.2125
     24  C24      -10.5268   -1.4420   -5.6133 C.ar    1  LGD1        0.2327
     25  C25       -9.3111   -2.0945   -5.2757 C.ar    1  LGD1        0.2651
     26  C26       -8.2566   -1.0817   -7.0330 C.ar    1  LGD1        0.2028
     27  C27      -11.6134   -1.0675   -3.4959 C.ar    1  LGD1        0.1793
     28  C28       -6.9575   -0.7618   -7.8522 C.ar    1  LGD1        0.1990
     29  C29       -7.9756   -2.5421   -3.3334 C.3     1  LGD1        0.2426
     30  C30      -12.2252   -1.8966   -2.5428 C.ar    1  LGD1        0.1730
     31  C31      -10.9423    0.0422   -3.0584 C.ar    1  LGD1        0.0406
     32  C32      -12.4489   -1.4076   -1.2293 C.ar    1  LGD1        0.0401
     33  C33       -7.8699   -3.5167   -2.1618 C.3     1  LGD1        0.2292
     34  C34      -11.0243    0.4883   -1.7145 C.ar    1  LGD1        0.0033
     35  C35      -11.9074   -0.1905   -0.8294 C.ar    1  LGD1        0.0033
     36  C36       -5.8894   -0.8497   -9.9076 C.ar    1  LGD1        0.1023
     37  C37       -4.6469   -0.7584   -7.7795 C.ar    1  LGD1        0.1023
     38  C38       -4.6817   -0.8181   -9.1741 C.ar    1  LGD1        0.0414
     39  C39      -12.7458   -4.2949   -2.0694 C.3     1  LGD1        0.2526
@<TRIPOS>BOND
     1    33    29    1
     2    33     7    1
     3    29     5    1
     4    39     6    1
     5    36    11   ar
     6    36    38   ar
     7     5    25    1
     8    11    28   ar
     9    10    25   ar
    10    10    26   ar
    11    25    24   ar
    12     6    30    1
    13    38    37   ar
    14    28    26    1
    15    28    12   ar
    16    26     9   ar
    17    24     4    1
    18    24    23   ar
    19     4    27    1
    20    30    27   ar
    21    30    32   ar
    22    37    12   ar
    23     9    23   ar
    24    23     8    1
    25    27    31   ar
    26    32    35   ar
    27     8     1    1
    28    31    34   ar
    29    35    34   ar
    30     2     1    2
    31     1     3    2
    32     1    20    1
    33    21    20   ar
    34    21    18   ar
    35    17    13    1
    36    20    22   ar
    37    18    14   ar
    38    22    19   ar
    39    14    19   ar
    40    14    13    1
    41    13    16    1
    42    13    15    1
@<TRIPOS>MOLECULE
../1EDN/PCA1_17-21.pdb
 47 48 0 0 0
SMALL
GASTEIGER

@<TRIPOS>ATOM
      1  N         -4.6470   -0.3680   -1.6750 N.3    17  LEU17      -0.1231
      2  CA        -5.8920   -0.8550   -2.2480 C.3    17  LEU17       0.1693
      3  CB        -6.0770   -2.3450   -1.7480 C.3    17  LEU17       0.0284
      4  CG        -7.4170   -3.0590   -2.1890 C.3    17  LEU17       0.0019
      5  CD1       -7.4920   -3.1930   -3.7220 C.3    17  LEU17       0.0001
      6  CD2       -7.5340   -4.4610   -1.6100 C.3    17  LEU17       0.0001
      7  C         -7.0080    0.1010   -1.8270 C.2    17  LEU17       0.2592
      8  O         -7.6220    0.6590   -2.7680 O.2    17  LEU17      -0.2718
      9  N         -7.2890    0.1920   -0.5460 N.am   18  ASP18      -0.1960
     10  CA        -8.2730    1.1070    0.1120 C.3    18  ASP18       0.1840
     11  CB        -8.8290    0.4520    1.4200 C.3    18  ASP18       0.1450
     12  CG        -9.9140    1.2760    2.0640 C.2    18  ASP18       0.3671
     13  OD1      -10.8560    1.7240    1.3430 O.co2  18  ASP18      -0.2456
     14  OD2       -9.7710    1.5960    3.2830 O.co2  18  ASP18      -0.2456
     15  C         -7.6270    2.4530    0.4740 C.2    18  ASP18       0.2622
     16  O         -8.0770    3.4620   -0.0480 O.2    18  ASP18      -0.2715
     17  N         -6.6010    2.4770    1.3340 N.am   19  ILE19      -0.1963
     18  CA        -6.1660    3.6270    2.0790 C.3    19  ILE19       0.1727
     19  CB        -5.0730    3.3500    3.1520 C.3    19  ILE19       0.0290
     20  CG2       -4.5850    4.5470    3.9530 C.3    19  ILE19       0.0023
     21  CG1       -5.6210    2.1420    3.9730 C.3    19  ILE19       0.0022
     22  CD1       -6.7460    2.5740    4.8760 C.3    19  ILE19       0.0001
     23  C         -5.6740    4.7260    1.1170 C.2    19  ILE19       0.2616
     24  O         -5.9640    5.8590    1.4260 O.2    19  ILE19      -0.2715
     25  N         -4.8940    4.3400    0.1060 N.am   20  ILE20      -0.1963
     26  CA        -4.3700    5.1770   -0.9560 C.3    20  ILE20       0.1727
     27  CB        -2.8480    5.4620   -0.8180 C.3    20  ILE20       0.0290
     28  CG2       -2.5210    6.1670    0.5290 C.3    20  ILE20       0.0023
     29  CG1       -1.9270    4.2500   -0.9510 C.3    20  ILE20       0.0022
     30  CD1       -0.4520    4.4090   -1.0350 C.3    20  ILE20       0.0001
     31  C         -4.8260    4.7960   -2.3980 C.2    20  ILE20       0.2617
     32  O         -4.8210    3.6210   -2.7490 O.2    20  ILE20      -0.2715
     33  N         -5.1950    5.7710   -3.1960 N.am   21  TRP21      -0.1941
     34  CA        -5.6960    5.8160   -4.5740 C.3    21  TRP21       0.1982
     35  CB        -7.1930    6.0870   -4.6010 C.3    21  TRP21       0.0394
     36  CG        -8.1480    4.9210   -4.3560 C.3    21  TRP21       0.0475
     37  CD1       -8.4270    4.3170   -3.1580 C.3    21  TRP21       0.1166
     38  NE1       -9.4680    3.4340   -3.3480 N.pl3  21  TRP21      -0.2376
     39  CE2      -10.0400    3.5420   -4.5600 C.ar   21  TRP21       0.0614
     40  CZ2      -11.2420    2.9770   -5.0990 C.ar   21  TRP21       0.0158
     41  CH2      -11.3060    3.0240   -6.5170 C.ar   21  TRP21       0.0013
     42  CZ3      -10.3640    3.7270   -7.2650 C.ar   21  TRP21      -0.0002
     43  CE3       -9.2810    4.3830   -6.7050 C.ar   21  TRP21      -0.0030
     44  CD2       -9.0950    4.3440   -5.3390 C.ar   21  TRP21      -0.0059
     45  C         -4.8510    6.8160   -5.3910 C.2    21  TRP21       0.3842
     46  O         -5.0400    8.0490   -5.1500 O.co2  21  TRP21      -0.2437
     47  OXT       -3.9720    6.3760   -6.1010 O.co2  21  TRP21      -0.2437
@<TRIPOS>BOND
     1    42    43   ar
     2    42    41   ar
     3    43    44   ar
     4    41    40   ar
     5    47    45   ar
     6    45    46   ar
     7    45    34    1
     8    44    39   ar
     9    44    36    1
    10    40    39   ar
    11    35    34    1
    12    35    36    1
    13    34    33    1
    14    39    38    1
    15    36    37    1
    16     5     4    1
    17    38    37    1
    18    33    31   am
    19     8     7    2
    20    32    31    2
    21    31    26    1
    22     2     7    1
    23     2     3    1
    24     2     1    1
    25     4     3    1
    26     4     6    1
    27     7     9   am
    28    30    29    1
    29    26    27    1
    30    26    25    1
    31    29    27    1
    32    27    28    1
    33     9    10    1
    34    16    15    2
    35    25    23   am
    36    10    15    1
    37    10    11    1
    38    15    17   am
    39    23    24    2
    40    23    18    1
    41    17    18    1
    42    13    12   ar
    43    11    12    1
    44    12    14   ar
    45    18    19    1
    46    19    20    1
    47    19    21    1
    48    21    22    1
