@<TRIPOS>MOLECULE
../1EDN/PCA2_17-21_NOBACKBONE.pdb
 26 23 0 0 0
SMALL
GASTEIGER

@<TRIPOS>ATOM
      1  CB        -5.9860   -1.2020   -0.4580 C.3    17  LEU17       0.0000
      2  CG        -7.1280   -2.2100   -0.5390 C.3    17  LEU17       0.0000
      3  CD1       -6.7120   -3.3620   -1.4700 C.3    17  LEU17       0.0000
      4  CD2       -7.4980   -2.5610    0.9130 C.3    17  LEU17       0.0000
      5  CB        -9.6810    1.0560   -1.6740 C.3    18  ASP18       0.1258
      6  CG       -11.0010    1.6360   -2.1090 C.2    18  ASP18       0.3654
      7  OD1      -11.5960    2.3310   -1.2790 O.co2  18  ASP18      -0.2456
      8  OD2      -11.5460    1.2700   -3.1630 O.co2  18  ASP18      -0.2456
      9  CB        -8.4260    4.8620    1.7600 C.3    19  ILE19       0.0000
     10  CG2       -7.7310    6.0060    2.5190 C.3    19  ILE19       0.0000
     11  CG1       -9.9240    4.5740    2.2500 C.3    19  ILE19       0.0000
     12  CD1      -10.9740    5.6950    2.0110 C.3    19  ILE19       0.0000
     13  CB        -3.5230    4.9310   -0.1080 C.3    20  ILE20       0.0000
     14  CG2       -2.1210    5.5060   -0.7390 C.3    20  ILE20       0.0000
     15  CG1       -3.5940    5.4760    1.3470 C.3    20  ILE20       0.0000
     16  CD1       -2.3570    5.1940    2.2260 C.3    20  ILE20       0.0000
     17  CB        -6.6210    3.8650   -5.0310 C.3    21  TRP21       0.0327
     18  CG        -6.7890    3.3770   -6.4480 C.ar   21  TRP21      -0.0013
     19  CD1       -7.1340    4.1960   -7.4760 C.ar   21  TRP21       0.0946
     20  NE1       -7.1740    3.4060   -8.6160 N.ar   21  TRP21      -0.2442
     21  CE2       -6.9360    2.0750   -8.3350 C.ar   21  TRP21       0.0810
     22  CZ2       -6.8300    1.0510   -9.2060 C.ar   21  TRP21       0.0191
     23  CH2       -6.3330   -0.2010   -8.7710 C.ar   21  TRP21       0.0015
     24  CZ3       -5.9560   -0.2520   -7.3640 C.ar   21  TRP21       0.0001
     25  CE3       -6.0150    0.8940   -6.5860 C.ar   21  TRP21       0.0012
     26  CD2       -6.6320    2.0560   -6.9830 C.ar   21  TRP21       0.0152
@<TRIPOS>BOND
     1    22    23   ar
     2    22    21   ar
     3    23    24   ar
     4    20    21   ar
     5    20    19   ar
     6    21    26   ar
     7    19    18   ar
     8    24    25   ar
     9    26    25   ar
    10    26    18   ar
    11    18    17    1
    12     8     6   ar
    13     6     5    1
    14     6     7   ar
    15     3     2    1
    16    14    13    1
    17     2     1    1
    18     2     4    1
    19    13    15    1
    20    15    16    1
    21     9    11    1
    22     9    10    1
    23    12    11    1
@<TRIPOS>MOLECULE
../BosentanConformers.pdb
 39 42 0 0 0
SMALL
GASTEIGER

@<TRIPOS>ATOM
      1  S1        -9.9064   -1.0758   -6.2592 S.O2    1  LGD1        0.0943
      2  O2       -11.1125   -1.8394   -6.4737 O.2     1  LGD1       -0.1483
      3  O3        -9.9050    0.4287   -6.4078 O.2     1  LGD1       -0.1483
      4  O4        -6.3046   -1.7141   -8.7307 O.3     1  LGD1       -0.4427
      5  O5        -4.5839   -3.7631   -8.1781 O.3     1  LGD1       -0.4552
      6  O6        -5.0730   -1.0720   -6.3233 O.3     1  LGD1       -0.4684
      7  O7        -2.3910   -4.7766  -10.1142 O.3     1  LGD1       -0.2162
      8  N8        -8.8678   -1.6630   -7.4605 N.pl3   1  LGD1       -0.0737
      9  N9        -8.4225   -3.7477   -6.4241 N.ar    1  LGD1       -0.2027
     10  N10       -6.3085   -4.8834   -6.8904 N.ar    1  LGD1       -0.1866
     11  N11       -7.3035   -6.9012   -5.0513 N.ar    1  LGD1       -0.2224
     12  N12       -9.6011   -6.0847   -5.7064 N.ar    1  LGD1       -0.2224
     13  C13       -7.1682   -2.3149   -0.8997 C.3     1  LGD1        0.0189
     14  C14       -7.9448   -1.9344   -2.1667 C.ar    1  LGD1       -0.0227
     15  C15       -6.0739   -1.3054   -0.4686 C.3     1  LGD1        0.0044
     16  C16       -8.0850   -2.2939    0.3257 C.3     1  LGD1        0.0044
     17  C17       -6.5282   -3.7024   -0.9758 C.3     1  LGD1        0.0044
     18  C18       -7.4304   -0.9790   -3.0604 C.ar    1  LGD1       -0.0029
     19  C19       -9.1521   -2.5151   -2.5152 C.ar    1  LGD1       -0.0029
     20  C20       -9.2135   -1.4166   -4.6566 C.ar    1  LGD1        0.1271
     21  C21       -8.1146   -0.6706   -4.2766 C.ar    1  LGD1        0.0199
     22  C22       -9.6814   -2.3464   -3.7621 C.ar    1  LGD1        0.0199
     23  C23       -7.9886   -2.7279   -7.2236 C.ar    1  LGD1        0.2125
     24  C24       -6.7526   -2.7579   -7.8852 C.ar    1  LGD1        0.2327
     25  C25       -5.9160   -3.8624   -7.7018 C.ar    1  LGD1        0.2651
     26  C26       -7.6106   -4.8159   -6.3446 C.ar    1  LGD1        0.2028
     27  C27       -6.3111   -0.3983   -8.2900 C.ar    1  LGD1        0.1793
     28  C28       -8.2161   -6.0093   -5.6082 C.ar    1  LGD1        0.1990
     29  C29       -3.7483   -4.9725   -8.0545 C.3     1  LGD1        0.2426
     30  C30       -5.7195   -0.1108   -7.0522 C.ar    1  LGD1        0.1730
     31  C31       -6.7995    0.5593   -9.1354 C.ar    1  LGD1        0.0406
     32  C32       -5.8657    1.1789   -6.5364 C.ar    1  LGD1        0.0401
     33  C33       -2.3115   -4.8415   -8.7182 C.3     1  LGD1        0.2292
     34  C34       -6.9953    1.8369   -8.6180 C.ar    1  LGD1        0.0033
     35  C35       -6.6227    2.1213   -7.2522 C.ar    1  LGD1        0.0033
     36  C36       -7.8483   -7.9014   -4.4158 C.ar    1  LGD1        0.1023
     37  C37      -10.1224   -7.0761   -4.9268 C.ar    1  LGD1        0.1023
     38  C38       -9.2358   -7.9568   -4.3153 C.ar    1  LGD1        0.0414
     39  C39       -3.7202   -1.2126   -6.7575 C.3     1  LGD1        0.2526
@<TRIPOS>BOND
     1    33    29    1
     2    33     7    1
     3    29     5    1
     4    39     6    1
     5    36    11   ar
     6    36    38   ar
     7     5    25    1
     8    11    28   ar
     9    10    25   ar
    10    10    26   ar
    11    25    24   ar
    12     6    30    1
    13    38    37   ar
    14    28    26    1
    15    28    12   ar
    16    26     9   ar
    17    24     4    1
    18    24    23   ar
    19     4    27    1
    20    30    27   ar
    21    30    32   ar
    22    37    12   ar
    23     9    23   ar
    24    23     8    1
    25    27    31   ar
    26    32    35   ar
    27     8     1    1
    28    31    34   ar
    29    35    34   ar
    30     2     1    2
    31     1     3    2
    32     1    20    1
    33    21    20   ar
    34    21    18   ar
    35    17    13    1
    36    20    22   ar
    37    18    14   ar
    38    22    19   ar
    39    14    19   ar
    40    14    13    1
    41    13    16    1
    42    13    15    1
@<TRIPOS>MOLECULE
../1EDN/PCA2_17-21.pdb
 47 48 0 0 0
SMALL
GASTEIGER

@<TRIPOS>ATOM
      1  N         -4.4680    0.3970   -1.5420 N.3    17  LEU17      -0.1231
      2  CA        -5.5730   -0.5090   -1.8150 C.3    17  LEU17       0.1693
      3  CB        -5.9860   -1.2020   -0.4580 C.3    17  LEU17       0.0284
      4  CG        -7.1280   -2.2100   -0.5390 C.3    17  LEU17       0.0019
      5  CD1       -6.7120   -3.3620   -1.4700 C.3    17  LEU17       0.0001
      6  CD2       -7.4980   -2.5610    0.9130 C.3    17  LEU17       0.0001
      7  C         -6.7000    0.2280   -2.5610 C.2    17  LEU17       0.2592
      8  O         -7.1860   -0.2780   -3.5510 O.2    17  LEU17      -0.2718
      9  N         -7.2650    1.2690   -1.9650 N.am   18  ASP18      -0.1960
     10  CA        -8.5260    1.8930   -2.2590 C.3    18  ASP18       0.1840
     11  CB        -9.6810    1.0560   -1.6740 C.3    18  ASP18       0.1450
     12  CG       -11.0010    1.6360   -2.1090 C.2    18  ASP18       0.3671
     13  OD1      -11.5960    2.3310   -1.2790 O.co2  18  ASP18      -0.2456
     14  OD2      -11.5460    1.2700   -3.1630 O.co2  18  ASP18      -0.2456
     15  C         -8.5570    3.3770   -1.7380 C.2    18  ASP18       0.2622
     16  O         -8.6960    4.2620   -2.5680 O.2    18  ASP18      -0.2715
     17  N         -8.4180    3.5730   -0.4160 N.am   19  ILE19      -0.1963
     18  CA        -8.3980    4.9040    0.1930 C.3    19  ILE19       0.1727
     19  CB        -8.4260    4.8620    1.7600 C.3    19  ILE19       0.0290
     20  CG2       -7.7310    6.0060    2.5190 C.3    19  ILE19       0.0023
     21  CG1       -9.9240    4.5740    2.2500 C.3    19  ILE19       0.0022
     22  CD1      -10.9740    5.6950    2.0110 C.3    19  ILE19       0.0001
     23  C         -7.1570    5.7010   -0.3260 C.2    19  ILE19       0.2616
     24  O         -7.3050    6.7970   -0.9200 O.2    19  ILE19      -0.2715
     25  N         -5.9900    5.0720   -0.2260 N.am   20  ILE20      -0.1963
     26  CA        -4.7520    5.3490   -0.9430 C.3    20  ILE20       0.1727
     27  CB        -3.5230    4.9310   -0.1080 C.3    20  ILE20       0.0290
     28  CG2       -2.1210    5.5060   -0.7390 C.3    20  ILE20       0.0023
     29  CG1       -3.5940    5.4760    1.3470 C.3    20  ILE20       0.0022
     30  CD1       -2.3570    5.1940    2.2260 C.3    20  ILE20       0.0001
     31  C         -4.7590    4.7050   -2.3650 C.2    20  ILE20       0.2617
     32  O         -4.2060    3.6200   -2.5900 O.2    20  ILE20      -0.2715
     33  N         -5.4060    5.3330   -3.3880 N.am   21  TRP21      -0.1938
     34  CA        -5.3950    4.7680   -4.7850 C.3    21  TRP21       0.2021
     35  CB        -6.6210    3.8650   -5.0310 C.3    21  TRP21       0.0612
     36  CG        -6.7890    3.3770   -6.4480 C.ar   21  TRP21       0.0007
     37  CD1       -7.1340    4.1960   -7.4760 C.ar   21  TRP21       0.0946
     38  NE1       -7.1740    3.4060   -8.6160 N.ar   21  TRP21      -0.2442
     39  CE2       -6.9360    2.0750   -8.3350 C.ar   21  TRP21       0.0810
     40  CZ2       -6.8300    1.0510   -9.2060 C.ar   21  TRP21       0.0191
     41  CH2       -6.3330   -0.2010   -8.7710 C.ar   21  TRP21       0.0015
     42  CZ3       -5.9560   -0.2520   -7.3640 C.ar   21  TRP21       0.0001
     43  CE3       -6.0150    0.8940   -6.5860 C.ar   21  TRP21       0.0012
     44  CD2       -6.6320    2.0560   -6.9830 C.ar   21  TRP21       0.0152
     45  C         -5.1960    5.8550   -5.8260 C.2    21  TRP21       0.3845
     46  O         -4.1840    5.6720   -6.5070 O.co2  21  TRP21      -0.2437
     47  OXT       -5.9640    6.8330   -6.0170 O.co2  21  TRP21      -0.2437
@<TRIPOS>BOND
     1    40    41   ar
     2    40    39   ar
     3    41    42   ar
     4    38    39   ar
     5    38    37   ar
     6    39    44   ar
     7    37    36   ar
     8    42    43   ar
     9    44    43   ar
    10    44    36   ar
    11    46    45   ar
    12    36    35    1
    13    47    45   ar
    14    45    34    1
    15    35    34    1
    16    34    33    1
    17     8     7    2
    18    33    31   am
    19    14    12   ar
    20    32    31    2
    21    16    15    2
    22     7     9   am
    23     7     2    1
    24    31    26    1
    25    10     9    1
    26    10    15    1
    27    10    11    1
    28    12    11    1
    29    12    13   ar
    30     2     1    1
    31     2     3    1
    32    15    17   am
    33     5     4    1
    34    26    25    1
    35    26    27    1
    36    24    23    2
    37    28    27    1
    38     4     3    1
    39     4     6    1
    40    17    18    1
    41    23    25   am
    42    23    18    1
    43    27    29    1
    44    18    19    1
    45    29    30    1
    46    19    21    1
    47    19    20    1
    48    22    21    1
