@<TRIPOS>MOLECULE
../1EDN/PCA3_17-21_NOBACKBONE.pdb
 26 23 0 0 0
SMALL
GASTEIGER

@<TRIPOS>ATOM
      1  CB        -5.7360   -1.8160   -1.1010 C.3    17  LEU17       0.0000
      2  CG        -6.9950   -2.5690   -1.5730 C.3    17  LEU17       0.0000
      3  CD1       -6.7530   -3.1800   -3.0080 C.3    17  LEU17       0.0000
      4  CD2       -7.2580   -3.7400   -0.6960 C.3    17  LEU17       0.0000
      5  CB        -9.1090    1.3410    0.3760 C.3    18  ASP18       0.1258
      6  CG       -10.1470    2.2990    0.9520 C.2    18  ASP18       0.3654
      7  OD1      -11.0720    2.5310    0.1500 O.co2  18  ASP18      -0.2456
      8  OD2      -10.1960    2.6850    2.1610 O.co2  18  ASP18      -0.2456
      9  CB        -5.3140    3.8890    3.0670 C.3    19  ILE19       0.0000
     10  CG2       -4.6600    5.0630    3.8540 C.3    19  ILE19       0.0000
     11  CG1       -6.1440    2.9790    3.9890 C.3    19  ILE19       0.0000
     12  CD1       -5.5170    2.2940    5.2130 C.3    19  ILE19       0.0000
     13  CB        -2.4460    5.7340   -1.0120 C.3    20  ILE20       0.0000
     14  CG2       -2.3030    7.0110   -0.1100 C.3    20  ILE20       0.0000
     15  CG1       -1.4300    4.6170   -0.6100 C.3    20  ILE20       0.0000
     16  CD1        0.0800    4.9990   -0.7110 C.3    20  ILE20       0.0000
     17  CB        -6.2680    3.7450   -4.8170 C.3    21  TRP21       0.0327
     18  CG        -6.5090    2.9660   -6.0890 C.ar   21  TRP21      -0.0013
     19  CD1       -7.0550    3.4090   -7.2190 C.ar   21  TRP21       0.0946
     20  NE1       -7.1560    2.4190   -8.1260 N.ar   21  TRP21      -0.2442
     21  CE2       -6.6880    1.2600   -7.6470 C.ar   21  TRP21       0.0810
     22  CZ2       -6.5320   -0.1050   -8.0600 C.ar   21  TRP21       0.0191
     23  CH2       -5.9630   -1.0770   -7.2340 C.ar   21  TRP21       0.0015
     24  CZ3       -5.4330   -0.7150   -5.9030 C.ar   21  TRP21       0.0001
     25  CE3       -5.5290    0.6400   -5.5430 C.ar   21  TRP21       0.0012
     26  CD2       -6.2440    1.5830   -6.3190 C.ar   21  TRP21       0.0152
@<TRIPOS>BOND
     1    20    21   ar
     2    20    19   ar
     3    22    21   ar
     4    22    23   ar
     5    21    26   ar
     6    23    24   ar
     7    19    18   ar
     8    26    18   ar
     9    26    25   ar
    10    18    17    1
    11    24    25   ar
    12     3     2    1
    13     2     1    1
    14     2     4    1
    15    13    15    1
    16    13    14    1
    17    16    15    1
    18     7     6   ar
    19     5     6    1
    20     6     8   ar
    21     9    10    1
    22     9    11    1
    23    11    12    1
@<TRIPOS>MOLECULE
./random.pdb
 39 42 0 0 0
SMALL
GASTEIGER

@<TRIPOS>ATOM
      1  S1        -0.6171   -0.2231   -4.7362 S.O2    1  LGD1        0.0943
      2  O2         0.5024   -1.1125   -4.1931 O.2     1  LGD1       -0.1483
      3  O3        -0.5222    0.2058   -6.1749 O.2     1  LGD1       -0.1483
      4  O4        -4.9646   -1.2468   -4.7111 O.3     1  LGD1       -0.4427
      5  O5        -6.3100   -1.4087   -2.2262 O.3     1  LGD1       -0.4552
      6  O6        -4.5098    1.4835   -3.8287 O.3     1  LGD1       -0.4684
      7  O7        -7.8024   -2.2235   -0.1284 O.3     1  LGD1       -0.2162
      8  N8        -2.0320   -1.1618   -4.7584 N.pl3   1  LGD1       -0.0737
      9  N9        -2.1592   -1.5049   -2.4046 N.ar    1  LGD1       -0.2027
     10  N10       -4.1929   -1.3601   -1.0984 N.ar    1  LGD1       -0.1866
     11  N11       -1.1303   -0.4889    0.2368 N.ar    1  LGD1       -0.2224
     12  N12       -2.3468   -2.5723    0.9102 N.ar    1  LGD1       -0.2224
     13  C13       -1.5456    4.7986   -1.4354 C.3     1  LGD1        0.0189
     14  C14       -1.2873    3.5818   -2.3370 C.ar    1  LGD1       -0.0227
     15  C15       -2.2773    5.9385   -2.1086 C.3     1  LGD1        0.0044
     16  C16       -0.1914    5.4168   -0.9760 C.3     1  LGD1        0.0044
     17  C17       -2.5158    4.5554   -0.2373 C.3     1  LGD1        0.0044
     18  C18       -1.6489    3.4974   -3.6755 C.ar    1  LGD1       -0.0029
     19  C19       -0.6002    2.4638   -1.7842 C.ar    1  LGD1       -0.0029
     20  C20       -0.8550    1.1878   -3.7799 C.ar    1  LGD1        0.1271
     21  C21       -1.4103    2.3374   -4.4178 C.ar    1  LGD1        0.0199
     22  C22       -0.3525    1.2772   -2.4914 C.ar    1  LGD1        0.0199
     23  C23       -2.8018   -1.2900   -3.5937 C.ar    1  LGD1        0.2125
     24  C24       -4.2356   -1.2602   -3.5500 C.ar    1  LGD1        0.2327
     25  C25       -4.8908   -1.3702   -2.2809 C.ar    1  LGD1        0.2651
     26  C26       -2.8563   -1.5368   -1.2387 C.ar    1  LGD1        0.2028
     27  C27       -5.3630   -0.1618   -5.4429 C.ar    1  LGD1        0.1793
     28  C28       -1.9901   -1.5599    0.0727 C.ar    1  LGD1        0.1990
     29  C29       -6.8754   -2.7235   -2.2763 C.3     1  LGD1        0.2426
     30  C30       -5.1617    1.1809   -5.0331 C.ar    1  LGD1        0.1730
     31  C31       -6.0543   -0.4619   -6.5780 C.ar    1  LGD1        0.0406
     32  C32       -5.6058    2.1651   -5.9189 C.ar    1  LGD1        0.0401
     33  C33       -6.9894   -3.1706   -0.8408 C.3     1  LGD1        0.2292
     34  C34       -6.4901    0.5525   -7.4366 C.ar    1  LGD1        0.0033
     35  C35       -6.2868    1.9243   -7.1188 C.ar    1  LGD1        0.0033
     36  C36       -0.5200   -0.5197    1.4458 C.ar    1  LGD1        0.1023
     37  C37       -1.7396   -2.5865    2.0899 C.ar    1  LGD1        0.1023
     38  C38       -0.8477   -1.5429    2.3342 C.ar    1  LGD1        0.0414
     39  C39       -5.3587    1.9173   -2.7452 C.3     1  LGD1        0.2526
@<TRIPOS>BOND
     1    33    29    1
     2    33     7    1
     3    29     5    1
     4    35    34   ar
     5    35    32   ar
     6    34    31   ar
     7     5    25    1
     8    32    30   ar
     9    12    37   ar
    10    12    28   ar
    11    37    38   ar
    12    31    27   ar
    13    10    25   ar
    14    10    26   ar
    15    25    24   ar
    16    39     6    1
    17    30    27   ar
    18    30     6    1
    19    27     4    1
    20    15    13    1
    21    26    28    1
    22    26     9   ar
    23    28    11   ar
    24    38    36   ar
    25    24     4    1
    26    24    23   ar
    27     9    23   ar
    28    23     8    1
    29    11    36   ar
    30    13    17    1
    31    13    14    1
    32    13    16    1
    33     8     1    1
    34    19    14   ar
    35    19    22   ar
    36    14    18   ar
    37    22    20   ar
    38    18    21   ar
    39    20    21   ar
    40    20     1    1
    41     1     2    2
    42     1     3    2
@<TRIPOS>MOLECULE
../1EDN/PCA3_17-21.pdb
 47 48 0 0 0
SMALL
GASTEIGER

@<TRIPOS>ATOM
      1  N         -4.2370    0.0490   -1.5930 N.3    17  LEU17      -0.1231
      2  CA        -5.5250   -0.5610   -1.9200 C.3    17  LEU17       0.1693
      3  CB        -5.7360   -1.8160   -1.1010 C.3    17  LEU17       0.0284
      4  CG        -6.9950   -2.5690   -1.5730 C.3    17  LEU17       0.0019
      5  CD1       -6.7530   -3.1800   -3.0080 C.3    17  LEU17       0.0001
      6  CD2       -7.2580   -3.7400   -0.6960 C.3    17  LEU17       0.0001
      7  C         -6.6810    0.4320   -1.9250 C.2    17  LEU17       0.2592
      8  O         -7.3270    0.6200   -2.9560 O.2    17  LEU17      -0.2718
      9  N         -6.9500    1.1080   -0.7900 N.am   18  ASP18      -0.1960
     10  CA        -8.0880    2.0070   -0.5710 C.3    18  ASP18       0.1840
     11  CB        -9.1090    1.3410    0.3760 C.3    18  ASP18       0.1450
     12  CG       -10.1470    2.2990    0.9520 C.2    18  ASP18       0.3671
     13  OD1      -11.0720    2.5310    0.1500 O.co2  18  ASP18      -0.2456
     14  OD2      -10.1960    2.6850    2.1610 O.co2  18  ASP18      -0.2456
     15  C         -7.6280    3.3500    0.0060 C.2    18  ASP18       0.2622
     16  O         -7.9950    4.4650   -0.3580 O.2    18  ASP18      -0.2715
     17  N         -6.8140    3.2050    1.0390 N.am   19  ILE19      -0.1963
     18  CA        -6.1800    4.3790    1.8160 C.3    19  ILE19       0.1727
     19  CB        -5.3140    3.8890    3.0670 C.3    19  ILE19       0.0290
     20  CG2       -4.6600    5.0630    3.8540 C.3    19  ILE19       0.0023
     21  CG1       -6.1440    2.9790    3.9890 C.3    19  ILE19       0.0022
     22  CD1       -5.5170    2.2940    5.2130 C.3    19  ILE19       0.0001
     23  C         -5.2670    5.2520    0.8640 C.2    19  ILE19       0.2616
     24  O         -5.3920    6.4650    0.9090 O.2    19  ILE19      -0.2715
     25  N         -4.4890    4.6060    0.0020 N.am   20  ILE20      -0.1963
     26  CA        -3.9690    5.2910   -1.1850 C.3    20  ILE20       0.1727
     27  CB        -2.4460    5.7340   -1.0120 C.3    20  ILE20       0.0290
     28  CG2       -2.3030    7.0110   -0.1100 C.3    20  ILE20       0.0023
     29  CG1       -1.4300    4.6170   -0.6100 C.3    20  ILE20       0.0022
     30  CD1        0.0800    4.9990   -0.7110 C.3    20  ILE20       0.0001
     31  C         -4.1660    4.3690   -2.4130 C.2    20  ILE20       0.2617
     32  O         -3.9200    3.1710   -2.5010 O.2    20  ILE20      -0.2715
     33  N         -4.6410    5.0460   -3.5090 N.am   21  TRP21      -0.1938
     34  CA        -4.8980    4.4430   -4.8120 C.3    21  TRP21       0.2021
     35  CB        -6.2680    3.7450   -4.8170 C.3    21  TRP21       0.0612
     36  CG        -6.5090    2.9660   -6.0890 C.ar   21  TRP21       0.0007
     37  CD1       -7.0550    3.4090   -7.2190 C.ar   21  TRP21       0.0946
     38  NE1       -7.1560    2.4190   -8.1260 N.ar   21  TRP21      -0.2442
     39  CE2       -6.6880    1.2600   -7.6470 C.ar   21  TRP21       0.0810
     40  CZ2       -6.5320   -0.1050   -8.0600 C.ar   21  TRP21       0.0191
     41  CH2       -5.9630   -1.0770   -7.2340 C.ar   21  TRP21       0.0015
     42  CZ3       -5.4330   -0.7150   -5.9030 C.ar   21  TRP21       0.0001
     43  CE3       -5.5290    0.6400   -5.5430 C.ar   21  TRP21       0.0012
     44  CD2       -6.2440    1.5830   -6.3190 C.ar   21  TRP21       0.0152
     45  C         -4.7460    5.5030   -5.9410 C.2    21  TRP21       0.3845
     46  O         -5.6740    6.3580   -6.0770 O.co2  21  TRP21      -0.2437
     47  OXT       -3.7150    5.4030   -6.6310 O.co2  21  TRP21      -0.2437
@<TRIPOS>BOND
     1    38    39   ar
     2    38    37   ar
     3    40    39   ar
     4    40    41   ar
     5    39    44   ar
     6    41    42   ar
     7    37    36   ar
     8    47    45   ar
     9    44    36   ar
    10    44    43   ar
    11    36    35    1
    12    46    45   ar
    13    45    34    1
    14    42    43   ar
    15    35    34    1
    16    34    33    1
    17    33    31   am
    18     5     4    1
    19     8     7    2
    20    32    31    2
    21    31    26    1
    22     7     2    1
    23     7     9   am
    24     2     1    1
    25     2     3    1
    26     4     3    1
    27     4     6    1
    28    26    27    1
    29    26    25    1
    30    27    29    1
    31    27    28    1
    32     9    10    1
    33    30    29    1
    34    10    15    1
    35    10    11    1
    36    16    15    2
    37    25    23   am
    38    15    17   am
    39    13    12   ar
    40    11    12    1
    41    23    24    2
    42    23    18    1
    43    12    14   ar
    44    17    18    1
    45    18    19    1
    46    19    20    1
    47    19    21    1
    48    21    22    1
