@<TRIPOS>MOLECULE
../1EDN/XRAY_17-21_NOBACKBONE.pdb
 26 23 0 0 0
SMALL
GASTEIGER

@<TRIPOS>ATOM
      1  CB         5.6570  -21.0170   -0.8850 C.3    17  LEU17       0.0000
      2  CG         5.4050  -22.5400   -0.8470 C.3    17  LEU17       0.0000
      3  CD1        6.1110  -23.2140    0.3150 C.3    17  LEU17       0.0000
      4  CD2        3.9240  -22.7940   -0.7690 C.3    17  LEU17       0.0000
      5  CB         3.8720  -17.2370    1.5730 C.3    18  ASP18       0.0476
      6  CG         2.4440  -17.7210    1.8880 C.2    18  ASP18       0.0507
      7  OD1        1.8320  -18.4410    1.0660 O.co2  18  ASP18      -0.5492
      8  OD2        1.9260  -17.3730    2.9700 O.co2  18  ASP18      -0.5492
      9  CB         7.9140  -14.3690   -1.8400 C.3    19  ILE19       0.0000
     10  CG1        8.8760  -14.8240   -0.7490 C.3    19  ILE19       0.0000
     11  CG2        8.2810  -12.9320   -2.2380 C.3    19  ILE19       0.0000
     12  CD1        9.3280  -13.7050    0.1860 C.3    19  ILE19       0.0000
     13  CB         5.8140  -13.8870   -5.9550 C.3    20  ILE20       0.0000
     14  CG1        5.9530  -12.3980   -5.6400 C.3    20  ILE20       0.0000
     15  CG2        5.1640  -14.0490   -7.3150 C.3    20  ILE20       0.0000
     16  CD1        6.8340  -11.6390   -6.6010 C.3    20  ILE20       0.0000
     17  CB         2.6690  -18.5180   -5.3120 C.3    21  TRP21       0.0327
     18  CG         1.5690  -17.9980   -4.3600 C.ar   21  TRP21      -0.0013
     19  CD1        0.7990  -18.7930   -3.5490 C.ar   21  TRP21       0.0946
     20  CD2        1.2480  -16.6350   -3.9890 C.ar   21  TRP21       0.0152
     21  CE2        0.3020  -16.7070   -2.9250 C.ar   21  TRP21       0.0810
     22  CE3        1.6680  -15.3700   -4.4360 C.ar   21  TRP21       0.0012
     23  NE1        0.0520  -18.0350   -2.6840 N.ar   21  TRP21      -0.2442
     24  CZ2       -0.2230  -15.5590   -2.2950 C.ar   21  TRP21       0.0191
     25  CZ3        1.1420  -14.2140   -3.8060 C.ar   21  TRP21       0.0001
     26  CH2        0.2070  -14.3240   -2.7450 C.ar   21  TRP21       0.0015
@<TRIPOS>BOND
     1    15    13    1
     2    16    14    1
     3    13    14    1
     4    17    18    1
     5    22    20   ar
     6    22    25   ar
     7    18    20   ar
     8    18    19   ar
     9    20    21   ar
    10    25    26   ar
    11    19    23   ar
    12    21    23   ar
    13    21    24   ar
    14    26    24   ar
    15    11     9    1
    16     9    10    1
    17     1     2    1
    18     2     4    1
    19     2     3    1
    20    10    12    1
    21     7     6   ar
    22     5     6    1
    23     6     8   ar
@<TRIPOS>MOLECULE
./random.pdb
 39 42 0 0 0
SMALL
GASTEIGER

@<TRIPOS>ATOM
      1  S1         3.4659  -13.3361    0.2669 S.O2    1  LGD1        0.0943
      2  O2         4.5138  -13.8429    1.2446 O.2     1  LGD1       -0.1483
      3  O3         2.6795  -12.1516    0.6528 O.2     1  LGD1       -0.1483
      4  O4         0.1106  -14.0412   -1.1347 O.3     1  LGD1       -0.4427
      5  O5        -2.2989  -14.2060    0.2773 O.3     1  LGD1       -0.4552
      6  O6        -0.4826  -16.8899   -1.0954 O.3     1  LGD1       -0.4684
      7  O7        -5.1213  -14.7514   -0.0182 O.3     1  LGD1       -0.2162
      8  N8         2.4467  -14.6871    0.0614 N.pl3   1  LGD1       -0.0737
      9  N9         1.3075  -15.4587    1.9851 N.ar    1  LGD1       -0.2027
     10  N10       -1.0830  -15.1582    2.1520 N.ar    1  LGD1       -0.1866
     11  N11        1.0779  -17.4880    3.9179 N.ar    1  LGD1       -0.2224
     12  N12       -0.7083  -16.1876    4.8346 N.ar    1  LGD1       -0.2224
     13  C13        5.4952  -13.0968   -5.4758 C.3     1  LGD1        0.0189
     14  C14        5.0781  -13.1058   -4.0061 C.ar    1  LGD1       -0.0227
     15  C15        6.3861  -14.2987   -5.8929 C.3     1  LGD1        0.0044
     16  C16        4.3054  -13.1231   -6.3719 C.3     1  LGD1        0.0044
     17  C17        6.2982  -11.9467   -5.9328 C.3     1  LGD1        0.0044
     18  C18        5.4352  -14.2061   -3.1952 C.ar    1  LGD1       -0.0029
     19  C19        4.3891  -12.0315   -3.4237 C.ar    1  LGD1       -0.0029
     20  C20        4.2137  -13.1778   -1.3726 C.ar    1  LGD1        0.1271
     21  C21        4.9886  -14.2626   -1.8766 C.ar    1  LGD1        0.0199
     22  C22        3.9572  -12.1029   -2.1349 C.ar    1  LGD1        0.0199
     23  C23        1.2845  -14.8115    0.8024 C.ar    1  LGD1        0.2125
     24  C24        0.0659  -14.4710    0.1565 C.ar    1  LGD1        0.2327
     25  C25       -1.0963  -14.6460    0.9055 C.ar    1  LGD1        0.2651
     26  C26        0.1158  -15.5806    2.6262 C.ar    1  LGD1        0.2028
     27  C27        0.3629  -14.8775   -2.1766 C.ar    1  LGD1        0.1793
     28  C28        0.1857  -16.4701    3.9125 C.ar    1  LGD1        0.1990
     29  C29       -3.2995  -13.7225    1.2743 C.3     1  LGD1        0.2426
     30  C30       -0.0028  -16.2669   -2.2451 C.ar    1  LGD1        0.1730
     31  C31        1.2270  -14.3176   -3.1481 C.ar    1  LGD1        0.0406
     32  C32        0.4282  -16.9393   -3.3818 C.ar    1  LGD1        0.0401
     33  C33       -4.5749  -13.4784    0.4961 C.3     1  LGD1        0.2292
     34  C34        1.4531  -14.9655   -4.3552 C.ar    1  LGD1        0.0033
     35  C35        1.0427  -16.3201   -4.4655 C.ar    1  LGD1        0.0033
     36  C36        0.9674  -18.3728    4.9716 C.ar    1  LGD1        0.1023
     37  C37       -0.7668  -16.9410    6.0004 C.ar    1  LGD1        0.1023
     38  C38       -0.0567  -18.1268    5.9349 C.ar    1  LGD1        0.0414
     39  C39       -0.1488  -18.2320   -0.9297 C.3     1  LGD1        0.2526
@<TRIPOS>BOND
     1    33    29    1
     2    33     7    1
     3    29     5    1
     4    35    34   ar
     5    35    32   ar
     6    34    31   ar
     7     5    25    1
     8    32    30   ar
     9    12    37   ar
    10    12    28   ar
    11    37    38   ar
    12    31    27   ar
    13    10    25   ar
    14    10    26   ar
    15    25    24   ar
    16    39     6    1
    17    30    27   ar
    18    30     6    1
    19    27     4    1
    20    15    13    1
    21    26    28    1
    22    26     9   ar
    23    28    11   ar
    24    38    36   ar
    25    24     4    1
    26    24    23   ar
    27     9    23   ar
    28    23     8    1
    29    11    36   ar
    30    13    17    1
    31    13    14    1
    32    13    16    1
    33     8     1    1
    34    19    14   ar
    35    19    22   ar
    36    14    18   ar
    37    22    20   ar
    38    18    21   ar
    39    20    21   ar
    40    20     1    1
    41     1     2    2
    42     1     3    2
@<TRIPOS>MOLECULE
../1EDN/XRAY_17-21.pdb
 47 48 0 0 0
SMALL
GASTEIGER

@<TRIPOS>ATOM
      1  N          6.4500  -19.7300   -2.8460 N.3    17  LEU17      -0.1231
      2  CA         5.2640  -20.1680   -2.1160 C.3    17  LEU17       0.1693
      3  C          4.7010  -18.8060   -1.6720 C.2    17  LEU17       0.2592
      4  O          4.3760  -17.9800   -2.5270 O.2    17  LEU17      -0.2718
      5  CB         5.6570  -21.0170   -0.8850 C.3    17  LEU17       0.0284
      6  CG         5.4050  -22.5400   -0.8470 C.3    17  LEU17       0.0019
      7  CD1        6.1110  -23.2140    0.3150 C.3    17  LEU17       0.0001
      8  CD2        3.9240  -22.7940   -0.7690 C.3    17  LEU17       0.0001
      9  N          4.7270  -18.4910   -0.3800 N.am   18  ASP18      -0.1962
     10  CA         4.1720  -17.2010    0.0630 C.3    18  ASP18       0.1783
     11  C          4.7750  -15.8130   -0.3500 C.2    18  ASP18       0.2620
     12  O          4.1570  -14.7710   -0.0750 O.2    18  ASP18      -0.2715
     13  CB         3.8720  -17.2370    1.5730 C.3    18  ASP18       0.0728
     14  CG         2.4440  -17.7210    1.8880 C.2    18  ASP18       0.0526
     15  OD1        1.8320  -18.4410    1.0660 O.co2  18  ASP18      -0.5491
     16  OD2        1.9260  -17.3730    2.9700 O.co2  18  ASP18      -0.5491
     17  N          5.9570  -15.7420   -0.9630 N.am   19  ILE19      -0.1963
     18  CA         6.4450  -14.4030   -1.3510 C.3    19  ILE19       0.1727
     19  C          5.5760  -13.9960   -2.5290 C.2    19  ILE19       0.2616
     20  O          4.8370  -13.0080   -2.4770 O.2    19  ILE19      -0.2715
     21  CB         7.9140  -14.3690   -1.8400 C.3    19  ILE19       0.0290
     22  CG1        8.8760  -14.8240   -0.7490 C.3    19  ILE19       0.0022
     23  CG2        8.2810  -12.9320   -2.2380 C.3    19  ILE19       0.0023
     24  CD1        9.3280  -13.7050    0.1860 C.3    19  ILE19       0.0001
     25  N          5.7170  -14.7750   -3.5990 N.am   20  ILE20      -0.1963
     26  CA         4.9770  -14.6140   -4.8450 C.3    20  ILE20       0.1727
     27  C          4.7560  -16.0550   -5.2510 C.2    20  ILE20       0.2615
     28  O          5.5820  -16.9240   -4.9410 O.2    20  ILE20      -0.2715
     29  CB         5.8140  -13.8870   -5.9550 C.3    20  ILE20       0.0290
     30  CG1        5.9530  -12.3980   -5.6400 C.3    20  ILE20       0.0022
     31  CG2        5.1640  -14.0490   -7.3150 C.3    20  ILE20       0.0023
     32  CD1        6.8340  -11.6390   -6.6010 C.3    20  ILE20       0.0001
     33  N          3.6520  -16.3070   -5.9350 N.am   21  TRP21      -0.1988
     34  CA         3.3300  -17.6370   -6.4010 C.3    21  TRP21       0.1456
     35  C          2.5650  -17.6270   -7.7180 C.2    21  TRP21       0.1166
     36  O          1.8980  -18.6320   -8.0750 O.co2  21  TRP21      -0.3065
     37  CB         2.6690  -18.5180   -5.3120 C.3    21  TRP21       0.0562
     38  CG         1.5690  -17.9980   -4.3600 C.ar   21  TRP21       0.0005
     39  CD1        0.7990  -18.7930   -3.5490 C.ar   21  TRP21       0.0946
     40  CD2        1.2480  -16.6350   -3.9890 C.ar   21  TRP21       0.0152
     41  CE2        0.3020  -16.7070   -2.9250 C.ar   21  TRP21       0.0810
     42  CE3        1.6680  -15.3700   -4.4360 C.ar   21  TRP21       0.0012
     43  NE1        0.0520  -18.0350   -2.6840 N.ar   21  TRP21      -0.2442
     44  CZ2       -0.2230  -15.5590   -2.2950 C.ar   21  TRP21       0.0191
     45  CZ3        1.1420  -14.2140   -3.8060 C.ar   21  TRP21       0.0001
     46  CH2        0.2070  -14.3240   -2.7450 C.ar   21  TRP21       0.0015
     47  OXT        2.7400  -16.6140   -8.4280 O.co2  21  TRP21      -0.8460
@<TRIPOS>BOND
     1    47    35   ar
     2    36    35   ar
     3    35    34    1
     4    31    29    1
     5    32    30    1
     6    34    33    1
     7    34    37    1
     8    29    30    1
     9    29    26    1
    10    33    27   am
    11    37    38    1
    12    27    28    2
    13    27    26    1
    14    26    25    1
    15    42    40   ar
    16    42    45   ar
    17    38    40   ar
    18    38    39   ar
    19    40    41   ar
    20    45    46   ar
    21    25    19   am
    22    39    43   ar
    23    41    43   ar
    24    41    44   ar
    25     1     2    1
    26    46    44   ar
    27    19    20    2
    28    19    18    1
    29     4     3    2
    30    23    21    1
    31     2     3    1
    32     2     5    1
    33    21    18    1
    34    21    22    1
    35     3     9   am
    36    18    17    1
    37    17    11   am
    38     5     6    1
    39     6     8    1
    40     6     7    1
    41    22    24    1
    42     9    10    1
    43    11    12    2
    44    11    10    1
    45    10    13    1
    46    15    14   ar
    47    13    14    1
    48    14    16   ar
