@<TRIPOS>MOLECULE
178103
 66 70 0 0 0
SMALL
GASTEIGER

@<TRIPOS>ATOM
      1 O          -1.0417    2.2319    2.9047 O.co2   1  LIG11      -0.5495
      2 O          -1.9229    3.8748    1.5949 O.co2   1  LIG11      -0.5495
      3 O           2.0543   -3.0090   -0.9837 O.3     1  LIG11      -0.4920
      4 O           3.1079    2.0191    0.9975 O.3     1  LIG11      -0.4893
      5 O          -6.4766   -1.3143   -0.3006 O.3     1  LIG11      -0.4526
      6 O          -7.0462    0.3430   -1.9606 O.3     1  LIG11      -0.4526
      7 O           3.5781    4.5936   -3.1276 O.3     1  LIG11      -0.4950
      8 O           4.8766    0.9366    2.9686 O.3     1  LIG11      -0.3917
      9 C          -1.1306    1.9257    0.5497 C.3     1  LIG11       0.0203
     10 C           0.3644    1.5130    0.4838 C.3     1  LIG11       0.0218
     11 C          -1.9972    0.6376    0.6109 C.3     1  LIG11       0.0184
     12 C           0.2736    0.0745    0.0283 C.ar    1  LIG11      -0.0320
     13 C          -1.0356   -0.4075    0.0652 C.ar    1  LIG11      -0.0353
     14 C           1.2476    2.3526   -0.4476 C.ar    1  LIG11       0.0025
     15 C          -3.3577    0.6615   -0.0987 C.ar    1  LIG11      -0.0356
     16 C          -1.3873    2.7490    1.8063 C.2     1  LIG11       0.0466
     17 C           1.3433   -0.7525   -0.3157 C.ar    1  LIG11      -0.0159
     18 C          -1.2826   -1.7366   -0.2617 C.ar    1  LIG11      -0.0542
     19 C           2.5939    2.6188   -0.1277 C.ar    1  LIG11       0.1278
     20 C           1.1009   -2.0843   -0.6455 C.ar    1  LIG11       0.1208
     21 C          -4.2979   -0.3433    0.2193 C.ar    1  LIG11      -0.0124
     22 C          -0.2139   -2.5661   -0.6245 C.ar    1  LIG11      -0.0196
     23 C          -3.7245    1.6267   -1.0673 C.ar    1  LIG11      -0.0543
     24 C           0.7668    2.8230   -1.6825 C.ar    1  LIG11      -0.0510
     25 C          -5.4997   -0.3800   -0.4594 C.ar    1  LIG11       0.1665
     26 C          -4.9644    1.5842   -1.7212 C.ar    1  LIG11      -0.0159
     27 C           3.4076    3.3614   -1.0002 C.ar    1  LIG11       0.0221
     28 C           1.5737    3.5790   -2.5355 C.ar    1  LIG11      -0.0194
     29 C          -5.8234    0.5588   -1.4061 C.ar    1  LIG11       0.1662
     30 C           2.8933    3.8605   -2.1966 C.ar    1  LIG11       0.1236
     31 C           3.4070   -2.5511   -0.9828 C.3     1  LIG11       0.0893
     32 C          -7.4384   -0.8623   -1.2745 C.3     1  LIG11       0.2332
     33 C           3.9846    2.8450    1.7736 C.3     1  LIG11       0.1126
     34 C           4.3278   -3.7147   -1.3432 C.3     1  LIG11      -0.0215
     35 C           4.1782    2.1747    3.1306 C.3     1  LIG11       0.0783
     36 C           4.8894    5.0123   -2.7710 C.3     1  LIG11       0.0788
     37 C           4.3230   -4.8042   -0.2806 C.3     1  LIG11      -0.0622
     38 H           4.2921    0.3919    2.4071 H       1  LIG11       0.2095
     39 H          -1.3902    2.5535   -0.2992 H       1  LIG11       0.0379
     40 H           0.8014    1.5139    1.4893 H       1  LIG11       0.0405
     41 H          -2.1942    0.3720    1.6592 H       1  LIG11       0.0404
     42 H           2.3421   -0.3350   -0.3006 H       1  LIG11       0.0657
     43 H          -2.2825   -2.1523   -0.2217 H       1  LIG11       0.0622
     44 H          -4.0796   -1.0906    0.9757 H       1  LIG11       0.0658
     45 H          -0.4065   -3.6063   -0.8715 H       1  LIG11       0.0654
     46 H          -3.0604    2.4449   -1.3278 H       1  LIG11       0.0622
     47 H          -0.2451    2.5969   -2.0084 H       1  LIG11       0.0623
     48 H          -5.2317    2.3373   -2.4524 H       1  LIG11       0.0655
     49 H           4.4500    3.5089   -0.7534 H       1  LIG11       0.0691
     50 H           1.1643    3.9409   -3.4749 H       1  LIG11       0.0654
     51 H           3.6836   -2.1657    0.0067 H       1  LIG11       0.0696
     52 H           3.5305   -1.7635   -1.7361 H       1  LIG11       0.0696
     53 H          -8.3931   -0.6829   -0.7672 H       1  LIG11       0.1166
     54 H          -7.5824   -1.6549   -2.0185 H       1  LIG11       0.1166
     55 H           3.5545    3.8434    1.9116 H       1  LIG11       0.0720
     56 H           4.9576    2.9104    1.2736 H       1  LIG11       0.0720
     57 H           5.3501   -3.3412   -1.4690 H       1  LIG11       0.0295
     58 H           4.0112   -4.1540   -2.2962 H       1  LIG11       0.0295
     59 H           4.7752    2.8104    3.7904 H       1  LIG11       0.0591
     60 H           3.2193    1.9576    3.6110 H       1  LIG11       0.0591
     61 H           5.2655    5.6510   -3.5761 H       1  LIG11       0.0660
     62 H           5.5643    4.1546   -2.6848 H       1  LIG11       0.0660
     63 H           4.8831    5.6062   -1.8507 H       1  LIG11       0.0660
     64 H           4.6444   -4.4073    0.6879 H       1  LIG11       0.0231
     65 H           5.0111   -5.6078   -0.5619 H       1  LIG11       0.0231
     66 H           3.3264   -5.2396   -0.1603 H       1  LIG11       0.0231
@<TRIPOS>BOND
     1     1    16   ar
     2     2    16   ar
     3     3    20    1
     4     3    31    1
     5     4    19    1
     6     4    33    1
     7     5    25    1
     8     5    32    1
     9     6    29    1
    10     6    32    1
    11     7    30    1
    12     7    36    1
    13     8    35    1
    14     9    10    1
    15     9    11    1
    16     9    16    1
    17    10    12    1
    18    10    14    1
    19    11    13    1
    20    11    15    1
    21    12    13   ar
    22    12    17   ar
    23    13    18   ar
    24    14    19   ar
    25    14    24   ar
    26    15    21   ar
    27    15    23   ar
    28    17    20   ar
    29    18    22   ar
    30    19    27   ar
    31    20    22   ar
    32    21    25   ar
    33    23    26   ar
    34    24    28   ar
    35    25    29   ar
    36    26    29   ar
    37    27    30   ar
    38    28    30   ar
    39    31    34    1
    40    33    35    1
    41    34    37    1
    42     8    38    1
    43     9    39    1
    44    10    40    1
    45    11    41    1
    46    17    42    1
    47    18    43    1
    48    21    44    1
    49    22    45    1
    50    23    46    1
    51    24    47    1
    52    26    48    1
    53    27    49    1
    54    28    50    1
    55    31    51    1
    56    31    52    1
    57    32    53    1
    58    32    54    1
    59    33    55    1
    60    33    56    1
    61    34    57    1
    62    34    58    1
    63    35    59    1
    64    35    60    1
    65    36    61    1
    66    36    62    1
    67    36    63    1
    68    37    64    1
    69    37    65    1
    70    37    66    1
@<TRIPOS>MOLECULE
16219006
 85 88 0 0 0
SMALL
GASTEIGER

@<TRIPOS>ATOM
      1 O           4.1595   -1.0570    2.2536 O.2     1  PRO11      -0.2738
      2 O           3.0771    0.9638   -1.3327 O.2     5  ASP55      -0.2735
      3 O           2.1429   -2.3169   -1.9198 O.2     2  VAL22      -0.2738
      4 O          -0.5282    2.9852    1.2259 O.2     4  TRP44      -0.2738
      5 O          -0.2891   -1.1205    1.7371 O.2     3  LEU33      -0.2738
      6 OD1         2.9204    5.0081   -3.2737 O.co2   5  ASP55      -0.5497
      7 OD2         3.5746    4.5180   -1.1454 O.co2   5  ASP55      -0.5497
      8 N           3.3879    1.7587    0.7665 N.am    1  PRO11      -0.2884
      9 N           4.1635   -1.2019   -0.0309 N.am    2  VAL22      -0.3022
     10 N           0.4065    1.9470   -0.5975 N.am    5  ASP55      -0.3021
     11 N           1.2829   -2.7598    0.1537 N.am    3  LEU33      -0.3025
     12 N          -1.1502   -0.2666   -0.2073 N.am    4  TRP44      -0.3022
     13 NE1        -5.4977   -1.0048   -0.0480 N.ar    4  TRP44      -0.3604
     14 CA          4.6127    0.9882    0.9728 C.3     1  PRO11       0.1023
     15 CB          5.2494    1.6111    2.2188 C.3     1  PRO11      -0.0243
     16 CG          4.0659    2.2126    2.9665 C.3     1  PRO11      -0.0350
     17 CD          3.1768    2.7130    1.8403 C.3     1  PRO11       0.0156
     18 C           4.2983   -0.5142    1.1594 C.2     1  PRO11       0.2342
     19 C           2.7943    1.8165   -0.4790 C.2     5  ASP55       0.2369
     20 CA          3.7196   -2.5905   -0.0830 C.3     2  VAL22       0.1017
     21 CA          1.6088    2.7945   -0.6893 C.3     5  ASP55       0.1047
     22 CB          4.6819   -3.4693   -0.9105 C.3     2  VAL22      -0.0197
     23 CA         -0.0846   -2.4774   -0.2564 C.3     3  LEU33       0.0996
     24 C           2.3231   -2.5545   -0.7269 C.2     2  VAL22       0.2342
     25 CB          1.6685    3.4387   -2.0636 C.3     5  ASP55       0.0138
     26 CA         -1.6148    0.9785    0.4183 C.3     4  TRP44       0.1034
     27 CB         -1.0346   -3.6323    0.0800 C.3     3  LEU33      -0.0236
     28 CG         -0.7159   -4.9555   -0.6466 C.3     3  LEU33      -0.0446
     29 C          -0.4976    2.0420    0.4375 C.2     4  TRP44       0.2343
     30 CB         -2.8327    1.5582   -0.3147 C.3     4  TRP44       0.0013
     31 C          -0.5025   -1.2274    0.5306 C.2     3  LEU33       0.2340
     32 CG1         4.1607   -4.9090   -1.0151 C.3     2  VAL22      -0.0605
     33 CG2         6.0820   -3.4911   -0.2886 C.3     2  VAL22      -0.0605
     34 CG         -4.0429    0.6593   -0.3740 C.ar    4  TRP44      -0.0201
     35 CG          2.8387    4.4092   -2.1638 C.2     5  ASP55       0.0440
     36 CD1        -1.6872   -6.0453   -0.1845 C.3     3  LEU33      -0.0626
     37 CD2        -0.7823   -4.8211   -2.1686 C.3     3  LEU33      -0.0626
     38 CD2        -5.2002    0.8799   -1.1927 C.ar    4  TRP44       0.0029
     39 CD1        -4.2821   -0.5058    0.3320 C.ar    4  TRP44       0.0060
     40 CE2        -6.0840   -0.1771   -0.9723 C.ar    4  TRP44       0.0467
     41 CE3        -5.5767    1.8899   -2.1024 C.ar    4  TRP44      -0.0523
     42 CZ2        -7.3203   -0.2808   -1.6211 C.ar    4  TRP44      -0.0378
     43 CZ3        -6.8129    1.8063   -2.7542 C.ar    4  TRP44      -0.0611
     44 CH2        -7.6694    0.7343   -2.5169 C.ar    4  TRP44      -0.0598
     45 H           3.9596   -0.6149   -0.8491 H       2  VAL22       0.1495
     46 H           0.4713    1.0670   -1.0930 H       5  ASP55       0.1495
     47 H           1.4843   -2.6125    1.1415 H       3  LEU33       0.1495
     48 H          -1.2339   -0.3620   -1.2124 H       4  TRP44       0.1495
     49 HE1        -5.9143   -1.8537    0.3082 H       4  TRP44       0.1653
     50 HA          5.2815    1.1002    0.1100 H       1  PRO11       0.0597
     51 HB1         5.9307    2.4168    1.9176 H       1  PRO11       0.0288
     52 HB2         5.8165    0.9040    2.8312 H       1  PRO11       0.0288
     53 HG1         4.3578    3.0085    3.6574 H       1  PRO11       0.0281
     54 HG2         3.5490    1.4331    3.5390 H       1  PRO11       0.0281
     55 HD1         2.1241    2.7498    2.1298 H       1  PRO11       0.0465
     56 HD2         3.4958    3.7026    1.4973 H       1  PRO11       0.0465
     57 HA          3.6420   -2.9962    0.9321 H       2  VAL22       0.0597
     58 HA          1.5684    3.5613    0.0872 H       5  ASP55       0.0598
     59 HB          4.7696   -3.0645   -1.9276 H       2  VAL22       0.0318
     60 HA         -0.1287   -2.2490   -1.3256 H       3  LEU33       0.0594
     61 HB1         0.7423    3.9946   -2.2579 H       5  ASP55       0.0348
     62 HB2         1.7678    2.6865   -2.8560 H       5  ASP55       0.0348
     63 HA         -1.8648    0.7640    1.4650 H       4  TRP44       0.0598
     64 HB1        -2.0637   -3.3272   -0.1543 H       3  LEU33       0.0290
     65 HB2        -1.0138   -3.8135    1.1636 H       3  LEU33       0.0290
     66 HG          0.2968   -5.2777   -0.3751 H       3  LEU33       0.0296
     67 HB1        -2.5455    1.8138   -1.3442 H       4  TRP44       0.0337
     68 HB2        -3.1325    2.4996    0.1647 H       4  TRP44       0.0337
     69 HG11        4.0174   -5.3514   -0.0225 H       2  VAL22       0.0233
     70 HG12        4.8665   -5.5398   -1.5670 H       2  VAL22       0.0233
     71 HG13        3.2043   -4.9528   -1.5456 H       2  VAL22       0.0233
     72 HG21        6.0523   -3.8645    0.7414 H       2  VAL22       0.0233
     73 HG22        6.5280   -2.4911   -0.2751 H       2  VAL22       0.0233
     74 HG23        6.7522   -4.1404   -0.8628 H       2  VAL22       0.0233
     75 HD11       -2.7218   -5.7897   -0.4392 H       3  LEU33       0.0232
     76 HD12       -1.6287   -6.1850    0.9000 H       3  LEU33       0.0232
     77 HD13       -1.4494   -7.0042   -0.6570 H       3  LEU33       0.0232
     78 HD21       -1.7514   -4.4249   -2.4907 H       3  LEU33       0.0232
     79 HD22       -0.6377   -5.7940   -2.6514 H       3  LEU33       0.0232
     80 HD23        0.0006   -4.1572   -2.5460 H       3  LEU33       0.0232
     81 HD1        -3.6867   -1.0285    1.0701 H       4  TRP44       0.0810
     82 HE3        -4.9168    2.7314   -2.2943 H       4  TRP44       0.0624
     83 HZ2        -7.9905   -1.1136   -1.4362 H       4  TRP44       0.0638
     84 HZ3        -7.1029    2.5883   -3.4506 H       4  TRP44       0.0618
     85 HH2        -8.6248    0.6868   -3.0335 H       4  TRP44       0.0618
@<TRIPOS>BOND
     1     1    18    2
     2     2    19    2
     3     3    24    2
     4     4    29    2
     5     5    31    2
     6     6    35   ar
     7     7    35   ar
     8     8    14    1
     9     8    17    1
    10     8    19   am
    11     9    18   am
    12     9    20    1
    13    10    21    1
    14    10    29   am
    15    11    23    1
    16    11    24   am
    17    12    26    1
    18    12    31   am
    19    13    39   ar
    20    13    40   ar
    21    14    15    1
    22    14    18    1
    23    15    16    1
    24    16    17    1
    25    19    21    1
    26    20    22    1
    27    20    24    1
    28    21    25    1
    29    22    32    1
    30    22    33    1
    31    23    27    1
    32    23    31    1
    33    25    35    1
    34    26    29    1
    35    26    30    1
    36    27    28    1
    37    28    36    1
    38    28    37    1
    39    30    34    1
    40    34    38   ar
    41    34    39   ar
    42    38    40   ar
    43    38    41   ar
    44    40    42   ar
    45    41    43   ar
    46    42    44   ar
    47    43    44   ar
    48     9    45    1
    49    10    46    1
    50    11    47    1
    51    12    48    1
    52    13    49    1
    53    14    50    1
    54    15    51    1
    55    15    52    1
    56    16    53    1
    57    16    54    1
    58    17    55    1
    59    17    56    1
    60    20    57    1
    61    21    58    1
    62    22    59    1
    63    23    60    1
    64    25    61    1
    65    25    62    1
    66    26    63    1
    67    27    64    1
    68    27    65    1
    69    28    66    1
    70    30    67    1
    71    30    68    1
    72    32    69    1
    73    32    70    1
    74    32    71    1
    75    33    72    1
    76    33    73    1
    77    33    74    1
    78    36    75    1
    79    36    76    1
    80    36    77    1
    81    37    78    1
    82    37    79    1
    83    37    80    1
    84    39    81    1
    85    41    82    1
    86    42    83    1
    87    43    84    1
    88    44    85    1
