@<TRIPOS>MOLECULE
3047752
 70 74 0 0 0
SMALL
GASTEIGER

@<TRIPOS>ATOM
      1 O          -1.5091    2.3575    2.2551 O.co2   1  LIG11      -0.5495
      2 O          -3.0853    2.8791    0.6987 O.co2   1  LIG11      -0.5495
      3 O          -6.9067   -0.6707   -0.6360 O.3     1  LIG11      -0.4526
      4 O          -6.5736   -0.7533   -3.0248 O.3     1  LIG11      -0.4526
      5 O           3.5883    4.6351   -2.8758 O.3     1  LIG11      -0.4951
      6 O           5.1439   -0.0640    2.1144 O.co2   1  LIG11      -0.5495
      7 O           6.1055    1.8152    2.9537 O.co2   1  LIG11      -0.5495
      8 N           1.4229   -0.9632   -0.3619 N.ar    1  LIG11      -0.2556
      9 C          -1.3725    1.3921    0.0863 C.3     1  LIG11       0.0217
     10 C           0.1699    1.1926    0.2422 C.3     1  LIG11       0.0357
     11 C          -2.0652    0.0237    0.3029 C.3     1  LIG11       0.0199
     12 C          -0.9462   -0.9387    0.0197 C.ar    1  LIG11      -0.0174
     13 C           0.2767   -0.2971   -0.1107 C.ar    1  LIG11       0.0534
     14 C           1.0889    2.1332   -0.5644 C.ar    1  LIG11      -0.0344
     15 C          -3.2562   -0.1942   -0.6352 C.ar    1  LIG11      -0.0356
     16 C          -2.0322    2.3032    1.1114 C.2     1  LIG11       0.0466
     17 C          -1.0156   -2.3199   -0.0765 C.ar    1  LIG11      -0.0546
     18 C           2.5013    2.1575   -0.3995 C.ar    1  LIG11      -0.0395
     19 C           0.5415    3.0438   -1.4967 C.ar    1  LIG11      -0.0542
     20 C           1.3598   -2.3139   -0.4512 C.ar    1  LIG11       0.0416
     21 C          -4.5498   -0.3288   -0.1030 C.ar    1  LIG11      -0.0124
     22 C           0.1620   -3.0203   -0.3076 C.ar    1  LIG11      -0.0401
     23 C          -3.0810   -0.2466   -2.0440 C.ar    1  LIG11      -0.0543
     24 C           3.2699    1.3014    0.6084 C.3     1  LIG11      -0.0196
     25 C           3.2807    2.9946   -1.2373 C.ar    1  LIG11      -0.0165
     26 C           2.6551   -3.0867   -0.5749 C.3     1  LIG11      -0.0104
     27 C           4.1983    2.0763    1.5634 C.3     1  LIG11      -0.0003
     28 C          -5.5993   -0.5170   -0.9796 C.ar    1  LIG11       0.1665
     29 C           1.3314    3.8947   -2.2798 C.ar    1  LIG11      -0.0197
     30 C          -4.1627   -0.4351   -2.9075 C.ar    1  LIG11      -0.0159
     31 C           2.7097    3.8696   -2.1578 C.ar    1  LIG11       0.1204
     32 C          -5.4099   -0.5670   -2.3420 C.ar    1  LIG11       0.1662
     33 C           3.7958   -2.3157   -1.2443 C.3     1  LIG11      -0.0479
     34 C           3.3967    2.8371    2.6175 C.3     1  LIG11      -0.0570
     35 C           5.0643   -3.1522   -1.4291 C.3     1  LIG11      -0.0556
     36 C           5.2299    1.1830    2.2868 C.2     1  LIG11       0.0449
     37 C          -7.5172   -0.7520   -1.9352 C.3     1  LIG11       0.2332
     38 C           5.7317   -3.5325   -0.1148 C.3     1  LIG11      -0.0653
     39 C           3.0366    5.7850   -3.5006 C.3     1  LIG11       0.0788
     40 H          -1.6311    1.7457   -0.9138 H       1  LIG11       0.0379
     41 H           0.4477    1.2981    1.2976 H       1  LIG11       0.0419
     42 H          -2.3758   -0.1241    1.3457 H       1  LIG11       0.0404
     43 H          -1.9593   -2.8387    0.0490 H       1  LIG11       0.0622
     44 H          -0.5302    3.1390   -1.6370 H       1  LIG11       0.0622
     45 H          -4.7248   -0.2588    0.9658 H       1  LIG11       0.0658
     46 H           0.1505   -4.1028   -0.3506 H       1  LIG11       0.0636
     47 H          -2.0836   -0.1254   -2.4653 H       1  LIG11       0.0622
     48 H           3.8675    0.6025    0.0128 H       1  LIG11       0.0319
     49 H           2.5940    0.6918    1.2137 H       1  LIG11       0.0319
     50 H           4.3653    2.9697   -1.1526 H       1  LIG11       0.0657
     51 H           2.4663   -3.9991   -1.1554 H       1  LIG11       0.0328
     52 H           2.9475   -3.3953    0.4354 H       1  LIG11       0.0328
     53 H           4.7965    2.8038    1.0004 H       1  LIG11       0.0361
     54 H           0.8250    4.5520   -2.9758 H       1  LIG11       0.0654
     55 H          -4.0211   -0.4631   -3.9802 H       1  LIG11       0.0655
     56 H           4.0447   -1.4305   -0.6539 H       1  LIG11       0.0269
     57 H           3.4654   -1.9588   -2.2271 H       1  LIG11       0.0269
     58 H           2.8036    2.1533    3.2325 H       1  LIG11       0.0236
     59 H           2.7157    3.5541    2.1495 H       1  LIG11       0.0236
     60 H           4.0524    3.4016    3.2893 H       1  LIG11       0.0236
     61 H           5.7785   -2.5710   -2.0234 H       1  LIG11       0.0263
     62 H           4.8373   -4.0591   -2.0010 H       1  LIG11       0.0263
     63 H          -8.1960    0.1007   -2.0607 H       1  LIG11       0.1166
     64 H          -8.1066   -1.6749   -1.9883 H       1  LIG11       0.1166
     65 H           5.9417   -2.6448    0.4906 H       1  LIG11       0.0230
     66 H           6.6804   -4.0417   -0.3083 H       1  LIG11       0.0230
     67 H           5.1053   -4.2107    0.4726 H       1  LIG11       0.0230
     68 H           3.8652    6.3840   -3.8913 H       1  LIG11       0.0660
     69 H           2.4867    6.4076   -2.7856 H       1  LIG11       0.0660
     70 H           2.4026    5.5054   -4.3489 H       1  LIG11       0.0660
@<TRIPOS>BOND
     1     1    16   ar
     2     2    16   ar
     3     3    28    1
     4     3    37    1
     5     4    32    1
     6     4    37    1
     7     5    31    1
     8     5    39    1
     9     6    36   ar
    10     7    36   ar
    11     8    13   ar
    12     8    20   ar
    13     9    10    1
    14     9    11    1
    15     9    16    1
    16    10    13    1
    17    10    14    1
    18    11    12    1
    19    11    15    1
    20    12    13   ar
    21    12    17   ar
    22    14    18   ar
    23    14    19   ar
    24    15    21   ar
    25    15    23   ar
    26    17    22   ar
    27    18    24    1
    28    18    25   ar
    29    19    29   ar
    30    20    22   ar
    31    20    26    1
    32    21    28   ar
    33    23    30   ar
    34    24    27    1
    35    25    31   ar
    36    26    33    1
    37    27    34    1
    38    27    36    1
    39    28    32   ar
    40    29    31   ar
    41    30    32   ar
    42    33    35    1
    43    35    38    1
    44     9    40    1
    45    10    41    1
    46    11    42    1
    47    17    43    1
    48    19    44    1
    49    21    45    1
    50    22    46    1
    51    23    47    1
    52    24    48    1
    53    24    49    1
    54    25    50    1
    55    26    51    1
    56    26    52    1
    57    27    53    1
    58    29    54    1
    59    30    55    1
    60    33    56    1
    61    33    57    1
    62    34    58    1
    63    34    59    1
    64    34    60    1
    65    35    61    1
    66    35    62    1
    67    37    63    1
    68    37    64    1
    69    38    65    1
    70    38    66    1
    71    38    67    1
    72    39    68    1
    73    39    69    1
    74    39    70    1
@<TRIPOS>MOLECULE
16219006
 85 88 0 0 0
SMALL
GASTEIGER

@<TRIPOS>ATOM
      1 O           4.3423   -0.9848    2.2168 O.2     1  PRO11      -0.2738
      2 O           3.2509    1.1228   -1.3695 O.2     5  ASP55      -0.2735
      3 O           1.9695   -1.8423   -1.7800 O.2     2  VAL22      -0.2738
      4 O          -0.4585    2.9215    1.2583 O.2     4  TRP44      -0.2738
      5 O          -0.3962   -1.1991    1.8021 O.2     3  LEU33      -0.2738
      6 OD1         3.5292    4.6556   -1.1148 O.co2   5  ASP55      -0.5497
      7 OD2         2.8062    5.1673   -3.2159 O.co2   5  ASP55      -0.5497
      8 N           3.4815    1.8407    0.7673 N.am    1  PRO11      -0.2884
      9 N           4.2145   -1.0622   -0.0694 N.am    2  VAL22      -0.3022
     10 N           0.5059    1.9181   -0.5680 N.am    5  ASP55      -0.3021
     11 N           1.2672   -2.7982    0.1696 N.am    3  LEU33      -0.3025
     12 N          -1.0907   -0.3213   -0.1990 N.am    4  TRP44      -0.3022
     13 NE1        -5.6549   -0.6121    0.0237 N.ar    4  TRP44      -0.3604
     14 CA          4.7218    1.0956    0.9764 C.3     1  PRO11       0.1023
     15 CB          5.3241    1.7072    2.2433 C.3     1  PRO11      -0.0243
     16 CG          4.1119    2.2483    2.9920 C.3     1  PRO11      -0.0350
     17 CD          3.2183    2.7492    1.8696 C.3     1  PRO11       0.0156
     18 C           4.4183   -0.4104    1.1334 C.2     1  PRO11       0.2342
     19 C           2.9041    1.9181   -0.4847 C.2     5  ASP55       0.2369
     20 CA          3.6786   -2.4114   -0.1236 C.3     2  VAL22       0.1017
     21 CA          1.6633    2.8263   -0.6664 C.3     5  ASP55       0.1047
     22 CB          4.5569   -3.3861   -0.9406 C.3     2  VAL22      -0.0197
     23 CA         -0.1356   -2.5914   -0.1625 C.3     3  LEU33       0.0996
     24 C           2.2436   -2.3187   -0.6798 C.2     2  VAL22       0.2342
     25 CB          1.6682    3.4953   -2.0305 C.3     5  ASP55       0.0138
     26 CA         -1.5440    0.9463    0.3865 C.3     4  TRP44       0.1034
     27 CB         -1.0150   -3.7606    0.2986 C.3     3  LEU33      -0.0236
     28 CG         -0.8984   -5.0263   -0.5781 C.3     3  LEU33      -0.0446
     29 C          -0.4145    1.9919    0.4543 C.2     4  TRP44       0.2343
     30 CB         -2.7069    1.5596   -0.4106 C.3     4  TRP44       0.0013
     31 C          -0.5533   -1.3127    0.5874 C.2     3  LEU33       0.2340
     32 CG1         5.8636   -3.6824   -0.1943 C.3     2  VAL22      -0.0605
     33 CG2         4.8801   -2.9106   -2.3600 C.3     2  VAL22      -0.0605
     34 CG         -3.8979    0.6501   -0.5168 C.ar    4  TRP44      -0.0201
     35 CG          2.7810    4.5326   -2.1230 C.2     5  ASP55       0.0440
     36 CD1         0.4610   -5.7195   -0.4593 C.3     3  LEU33      -0.0626
     37 CD2        -2.0036   -6.0164   -0.1983 C.3     3  LEU33      -0.0626
     38 CD2        -4.4323    0.0665   -1.7112 C.ar    4  TRP44       0.0029
     39 CD1        -4.6892    0.2142    0.5288 C.ar    4  TRP44       0.0060
     40 CE2        -5.5236   -0.7205   -1.3405 C.ar    4  TRP44       0.0467
     41 CE3        -4.0890    0.1343   -3.0776 C.ar    4  TRP44      -0.0523
     42 CZ2        -6.2851   -1.4464   -2.2647 C.ar    4  TRP44      -0.0378
     43 CZ3        -4.8423   -0.5817   -4.0155 C.ar    4  TRP44      -0.0611
     44 CH2        -5.9232   -1.3612   -3.6120 C.ar    4  TRP44      -0.0598
     45 H           3.9941   -0.4469   -0.8619 H       2  VAL22       0.1495
     46 H           0.5965    1.0459   -1.0749 H       5  ASP55       0.1495
     47 H           1.4872   -2.7764    1.1625 H       3  LEU33       0.1495
     48 H          -1.0994   -0.4223   -1.2070 H       4  TRP44       0.1495
     49 HE1        -6.3669   -1.0759    0.5698 H       4  TRP44       0.1653
     50 HA          5.3992    1.2288    0.1243 H       1  PRO11       0.0597
     51 HB1         5.9802    2.5433    1.9694 H       1  PRO11       0.0288
     52 HB2         5.9083    1.0046    2.8440 H       1  PRO11       0.0288
     53 HG1         4.3687    3.0339    3.7076 H       1  PRO11       0.0281
     54 HG2         3.6152    1.4368    3.5370 H       1  PRO11       0.0281
     55 HD1         2.1614    2.7338    2.1460 H       1  PRO11       0.0465
     56 HD2         3.5005    3.7615    1.5616 H       1  PRO11       0.0465
     57 HA          3.6113   -2.8084    0.8963 H       2  VAL22       0.0597
     58 HA          1.5952    3.5812    0.1198 H       5  ASP55       0.0598
     59 HB          4.0108   -4.3351   -1.0310 H       2  VAL22       0.0318
     60 HA         -0.2582   -2.4424   -1.2407 H       3  LEU33       0.0594
     61 HB1         0.7100    4.0005   -2.2046 H       5  ASP55       0.0348
     62 HB2         1.8013    2.7636   -2.8369 H       5  ASP55       0.0348
     63 HA         -1.8564    0.7494    1.4199 H       4  TRP44       0.0598
     64 HB1        -2.0616   -3.4256    0.2808 H       3  LEU33       0.0290
     65 HB2        -0.7946   -4.0124    1.3449 H       3  LEU33       0.0290
     66 HG         -1.0500   -4.7459   -1.6274 H       3  LEU33       0.0296
     67 HB1        -2.3623    1.8353   -1.4155 H       4  TRP44       0.0337
     68 HB2        -3.0268    2.4975    0.0632 H       4  TRP44       0.0337
     69 HG11        6.4868   -2.7863   -0.1044 H       2  VAL22       0.0233
     70 HG12        6.4468   -4.4453   -0.7213 H       2  VAL22       0.0233
     71 HG13        5.6617   -4.0592    0.8139 H       2  VAL22       0.0233
     72 HG21        5.4080   -1.9518   -2.3578 H       2  VAL22       0.0233
     73 HG22        3.9748   -2.8042   -2.9636 H       2  VAL22       0.0233
     74 HG23        5.5200   -3.6393   -2.8706 H       2  VAL22       0.0233
     75 HD11        0.7337   -5.8854    0.5881 H       3  LEU33       0.0232
     76 HD12        1.2515   -5.1325   -0.9342 H       3  LEU33       0.0232
     77 HD13        0.4493   -6.6920   -0.9619 H       3  LEU33       0.0232
     78 HD21       -1.9110   -6.3338    0.8457 H       3  LEU33       0.0232
     79 HD22       -1.9605   -6.9095   -0.8305 H       3  LEU33       0.0232
     80 HD23       -2.9927   -5.5650   -0.3313 H       3  LEU33       0.0232
     81 HD1        -4.6373    0.4164    1.5909 H       4  TRP44       0.0810
     82 HE3        -3.2535    0.7445   -3.4091 H       4  TRP44       0.0624
     83 HZ2        -7.1301   -2.0511   -1.9532 H       4  TRP44       0.0638
     84 HZ3        -4.5795   -0.5223   -5.0688 H       4  TRP44       0.0618
     85 HH2        -6.4969   -1.9083   -4.3562 H       4  TRP44       0.0618
@<TRIPOS>BOND
     1     1    18    2
     2     2    19    2
     3     3    24    2
     4     4    29    2
     5     5    31    2
     6     6    35   ar
     7     7    35   ar
     8     8    14    1
     9     8    17    1
    10     8    19   am
    11     9    18   am
    12     9    20    1
    13    10    21    1
    14    10    29   am
    15    11    23    1
    16    11    24   am
    17    12    26    1
    18    12    31   am
    19    13    39   ar
    20    13    40   ar
    21    14    15    1
    22    14    18    1
    23    15    16    1
    24    16    17    1
    25    19    21    1
    26    20    22    1
    27    20    24    1
    28    21    25    1
    29    22    32    1
    30    22    33    1
    31    23    27    1
    32    23    31    1
    33    25    35    1
    34    26    29    1
    35    26    30    1
    36    27    28    1
    37    28    36    1
    38    28    37    1
    39    30    34    1
    40    34    38   ar
    41    34    39   ar
    42    38    40   ar
    43    38    41   ar
    44    40    42   ar
    45    41    43   ar
    46    42    44   ar
    47    43    44   ar
    48     9    45    1
    49    10    46    1
    50    11    47    1
    51    12    48    1
    52    13    49    1
    53    14    50    1
    54    15    51    1
    55    15    52    1
    56    16    53    1
    57    16    54    1
    58    17    55    1
    59    17    56    1
    60    20    57    1
    61    21    58    1
    62    22    59    1
    63    23    60    1
    64    25    61    1
    65    25    62    1
    66    26    63    1
    67    27    64    1
    68    27    65    1
    69    28    66    1
    70    30    67    1
    71    30    68    1
    72    32    69    1
    73    32    70    1
    74    32    71    1
    75    33    72    1
    76    33    73    1
    77    33    74    1
    78    36    75    1
    79    36    76    1
    80    36    77    1
    81    37    78    1
    82    37    79    1
    83    37    80    1
    84    39    81    1
    85    41    82    1
    86    42    83    1
    87    43    84    1
    88    44    85    1
