@<TRIPOS>MOLECULE
11672244
 106 111 0 0 0
SMALL
GASTEIGER

@<TRIPOS>ATOM
      1 O          -0.3896   -1.2265    0.7949 O.3     1  LIG11      -0.4607
      2 O          -8.8337   -3.4789    0.8031 O.2     1  LIG11      -0.2968
      3 O          -1.1513    4.1256   -1.4891 O.co2   1  LIG11      -0.5492
      4 O          -1.1633    4.3509    0.7662 O.co2   1  LIG11      -0.5492
      5 O          -0.5455   -2.6470   -1.0248 O.2     1  LIG11      -0.2456
      6 O           5.6172   -6.1755   -1.5822 O.3     1  LIG11      -0.5067
      7 O           5.9092   -1.0439    2.2510 O.2     1  LIG11      -0.2705
      8 O           4.8760    3.7291    1.7982 O.co2   1  LIG11      -0.5452
      9 O           4.8883    3.5172    4.0786 O.co2   1  LIG11      -0.5452
     10 N           4.4301   -1.1139    0.4677 N.am    1  LIG11      -0.2815
     11 C          -3.8286    0.7519    0.8260 C.3     1  LIG11      -0.0160
     12 C          -4.5961   -0.0522   -0.2908 C.3     1  LIG11      -0.0256
     13 C          -2.2094    0.5373    0.5941 C.3     1  LIG11       0.0318
     14 C          -6.1513   -0.3271   -0.0692 C.3     1  LIG11      -0.0243
     15 C          -6.3093   -0.9197    1.3760 C.3     1  LIG11      -0.0235
     16 C          -4.2618    0.2740    2.2412 C.3     1  LIG11      -0.0461
     17 C          -1.8503    0.9019   -0.8713 C.2     1  LIG11      -0.0596
     18 C          -0.3997    1.3430   -1.1418 C.3     1  LIG11      -0.0080
     19 C          -5.7659    0.0743    2.4227 C.3     1  LIG11      -0.0483
     20 C          -1.4251    1.3821    1.6508 C.3     1  LIG11      -0.0392
     21 C          -4.2218    0.4816   -1.6893 C.3     1  LIG11      -0.0306
     22 C           0.0213    2.4712   -0.1774 C.3     1  LIG11       0.0167
     23 C          -7.6966   -1.5458    1.7397 C.3     1  LIG11       0.0267
     24 C          -6.5950   -1.4305   -1.0742 C.3     1  LIG11      -0.0404
     25 C          -0.0383    1.8845    1.2529 C.3     1  LIG11      -0.0408
     26 C          -4.1820    2.2729    0.7337 C.3     1  LIG11      -0.0584
     27 C          -2.7779    0.8489   -1.8494 C.2     1  LIG11      -0.0835
     28 C          -1.8083   -0.9799    0.7846 C.3     1  LIG11       0.1025
     29 C          -7.0304    0.9204   -0.3228 C.3     1  LIG11      -0.0590
     30 C          -0.0064    1.5998   -2.6191 C.3     1  LIG11      -0.0405
     31 C           1.4841    2.9153   -0.4235 C.3     1  LIG11      -0.0412
     32 C          -7.9924   -1.9774   -0.8268 C.3     1  LIG11       0.0069
     33 C           1.4785    1.9851   -2.8163 C.3     1  LIG11      -0.0343
     34 C          -8.1823   -2.4507    0.5933 C.2     1  LIG11       0.1392
     35 C           1.8465    3.1579   -1.8882 C.3     1  LIG11      -0.0470
     36 C          -8.8014   -0.5284    2.0543 C.3     1  LIG11      -0.0528
     37 C          -7.5331   -2.4487    2.9919 C.3     1  LIG11      -0.0528
     38 C          -0.8433    3.7733   -0.3130 C.2     1  LIG11       0.0485
     39 C           1.6917    2.4237   -4.2783 C.3     1  LIG11      -0.0598
     40 C           2.3958    0.7738   -2.5548 C.3     1  LIG11      -0.0598
     41 C           0.0807   -2.0790   -0.1438 C.2     1  LIG11       0.3320
     42 C           1.5211   -2.2786    0.1067 C.2     1  LIG11       0.0231
     43 C           2.2982   -2.7302   -0.8889 C.2     1  LIG11      -0.0460
     44 C           3.6981   -3.1467   -0.7088 C.ar    1  LIG11      -0.0001
     45 C           4.6904   -2.4217   -0.0132 C.ar    1  LIG11       0.0411
     46 C           4.0205   -4.4103   -1.2471 C.ar    1  LIG11      -0.0113
     47 C           5.9626   -2.9950    0.1382 C.ar    1  LIG11      -0.0364
     48 C           5.2917   -4.9498   -1.0808 C.ar    1  LIG11       0.1175
     49 C           6.2651   -4.2517   -0.3890 C.ar    1  LIG11      -0.0184
     50 C           5.1215   -0.4936    1.4891 C.2     1  LIG11       0.2411
     51 C           4.7994    0.9476    1.6117 C.2     1  LIG11       0.0021
     52 C           5.0117    1.5834    2.7733 C.2     1  LIG11      -0.0344
     53 C           4.8876    3.0941    2.8880 C.2     1  LIG11       0.0647
     54 H           4.8279   -6.5485   -2.0064 H       1  LIG11       0.2921
     55 H           3.6266   -0.6205    0.0988 H       1  LIG11       0.1551
     56 H          -4.1756   -1.0638   -0.2585 H       1  LIG11       0.0315
     57 H          -5.6196   -1.7807    1.4011 H       1  LIG11       0.0315
     58 H          -3.8055   -0.6857    2.4897 H       1  LIG11       0.0271
     59 H          -3.9041    0.9733    3.0070 H       1  LIG11       0.0271
     60 H           0.2042    0.4697   -0.8778 H       1  LIG11       0.0355
     61 H          -6.2854    1.0354    2.3883 H       1  LIG11       0.0269
     62 H          -5.9171   -0.3066    3.4374 H       1  LIG11       0.0269
     63 H          -1.9899    2.2648    1.9483 H       1  LIG11       0.0275
     64 H          -1.3293    0.8068    2.5817 H       1  LIG11       0.0275
     65 H          -4.8010    1.3735   -1.9437 H       1  LIG11       0.0310
     66 H          -4.4573   -0.2749   -2.4459 H       1  LIG11       0.0310
     67 H          -6.5546   -1.0487   -2.1013 H       1  LIG11       0.0275
     68 H          -5.8898   -2.2714   -1.0273 H       1  LIG11       0.0275
     69 H           0.2927    2.6268    1.9916 H       1  LIG11       0.0275
     70 H           0.6750    1.0549    1.3443 H       1  LIG11       0.0275
     71 H          -5.2506    2.4535    0.6579 H       1  LIG11       0.0235
     72 H          -3.8730    2.8256    1.6262 H       1  LIG11       0.0235
     73 H          -3.7200    2.7661   -0.1252 H       1  LIG11       0.0235
     74 H          -2.5129    1.1538   -2.8581 H       1  LIG11       0.0572
     75 H          -2.2984   -1.6159    0.0434 H       1  LIG11       0.0706
     76 H          -2.1347   -1.3444    1.7594 H       1  LIG11       0.0706
     77 H          -7.0736    1.6001    0.5281 H       1  LIG11       0.0235
     78 H          -6.6987    1.4939   -1.1907 H       1  LIG11       0.0235
     79 H          -8.0687    0.6666   -0.5427 H       1  LIG11       0.0235
     80 H          -0.2152    0.6948   -3.2068 H       1  LIG11       0.0276
     81 H          -0.6365    2.3841   -3.0525 H       1  LIG11       0.0276
     82 H           1.7062    3.8272    0.1466 H       1  LIG11       0.0274
     83 H           2.1683    2.1528   -0.0296 H       1  LIG11       0.0274
     84 H          -8.7722   -1.2458   -1.0543 H       1  LIG11       0.0342
     85 H          -8.1553   -2.8310   -1.4957 H       1  LIG11       0.0342
     86 H           1.3512    4.0742   -2.2310 H       1  LIG11       0.0271
     87 H           2.9235    3.3617   -1.9538 H       1  LIG11       0.0271
     88 H          -9.0946    0.0628    1.1863 H       1  LIG11       0.0239
     89 H          -9.7132   -1.0400    2.3871 H       1  LIG11       0.0239
     90 H          -8.5059    0.1581    2.8539 H       1  LIG11       0.0239
     91 H          -6.7614   -3.2109    2.8320 H       1  LIG11       0.0239
     92 H          -7.2662   -1.8760    3.8847 H       1  LIG11       0.0239
     93 H          -8.4622   -2.9806    3.2299 H       1  LIG11       0.0239
     94 H           1.0750    3.2949   -4.5260 H       1  LIG11       0.0235
     95 H           2.7376    2.6952   -4.4612 H       1  LIG11       0.0235
     96 H           1.4276    1.6202   -4.9751 H       1  LIG11       0.0235
     97 H           2.3243    0.4115   -1.5268 H       1  LIG11       0.0235
     98 H           2.1405   -0.0622   -3.2161 H       1  LIG11       0.0235
     99 H           3.4463    1.0285   -2.7357 H       1  LIG11       0.0235
    100 H           1.8756   -2.1029    1.1152 H       1  LIG11       0.0689
    101 H           1.8703   -2.9085   -1.8745 H       1  LIG11       0.0626
    102 H           3.2574   -4.9758   -1.7758 H       1  LIG11       0.0660
    103 H           6.7620   -2.4571    0.6440 H       1  LIG11       0.0637
    104 H           7.2589   -4.6678   -0.2619 H       1  LIG11       0.0655
    105 H           4.4888    1.4902    0.7260 H       1  LIG11       0.0670
    106 H           5.3304    1.0509    3.6631 H       1  LIG11       0.0637
@<TRIPOS>BOND
     1     1    41    1
     2     1    28    1
     3     2    34    2
     4     3    38   ar
     5     4    38   ar
     6     5    41    2
     7     6    48    1
     8     7    50    2
     9     8    53   ar
    10     9    53   ar
    11    10    45    1
    12    10    50   am
    13    11    16    1
    14    11    12    1
    15    11    26    1
    16    11    13    1
    17    12    14    1
    18    13    20    1
    19    13    17    1
    20    13    28    1
    21    14    15    1
    22    14    24    1
    23    14    29    1
    24    15    19    1
    25    15    23    1
    26    16    19    1
    27    17    18    1
    28    17    27    2
    29    18    30    1
    30    18    22    1
    31    20    25    1
    32    21    27    1
    33    21    12    1
    34    22    31    1
    35    22    25    1
    36    22    38    1
    37    23    34    1
    38    23    37    1
    39    23    36    1
    40    24    32    1
    41    30    33    1
    42    31    35    1
    43    32    34    1
    44    33    35    1
    45    33    40    1
    46    33    39    1
    47    41    42    1
    48    42    43    2
    49    43    44    1
    50    44    46   ar
    51    44    45   ar
    52    45    47   ar
    53    46    48   ar
    54    47    49   ar
    55    48    49   ar
    56    50    51    1
    57    51    52    2
    58    52    53    1
    59     6    54    1
    60    10    55    1
    61    12    56    1
    62    15    57    1
    63    16    58    1
    64    16    59    1
    65    18    60    1
    66    19    61    1
    67    19    62    1
    68    20    63    1
    69    20    64    1
    70    21    65    1
    71    21    66    1
    72    24    67    1
    73    24    68    1
    74    25    69    1
    75    25    70    1
    76    26    71    1
    77    26    72    1
    78    26    73    1
    79    27    74    1
    80    28    75    1
    81    28    76    1
    82    29    77    1
    83    29    78    1
    84    29    79    1
    85    30    80    1
    86    30    81    1
    87    31    82    1
    88    31    83    1
    89    32    84    1
    90    32    85    1
    91    35    86    1
    92    35    87    1
    93    36    88    1
    94    36    89    1
    95    36    90    1
    96    37    91    1
    97    37    92    1
    98    37    93    1
    99    39    94    1
   100    39    95    1
   101    39    96    1
   102    40    97    1
   103    40    98    1
   104    40    99    1
   105    42   100    1
   106    43   101    1
   107    46   102    1
   108    47   103    1
   109    49   104    1
   110    51   105    1
   111    52   106    1
@<TRIPOS>MOLECULE
16219006
 85 88 0 0 0
SMALL
GASTEIGER

@<TRIPOS>ATOM
      1 O           4.3441   -1.1357    2.2486 O.2     1  PRO11      -0.2738
      2 O           3.4182    1.1281   -1.4536 O.2     5  ASP55      -0.2735
      3 O           2.1663   -2.6611   -1.9436 O.2     2  VAL22      -0.2738
      4 O          -0.4157    3.0261    1.2871 O.2     4  TRP44      -0.2738
      5 O          -0.3105   -1.0558    1.7300 O.2     3  LEU33      -0.2738
      6 OD1         0.3952    1.4446   -2.9192 O.co2   5  ASP55      -0.5497
      7 OD2         1.5259    2.7765   -4.3990 O.co2   5  ASP55      -0.5497
      8 N           3.4844    1.7246    0.7233 N.am    1  PRO11      -0.2884
      9 N           4.1044   -1.2351   -0.0237 N.am    2  VAL22      -0.3022
     10 N           0.5412    1.8754   -0.4410 N.am    5  ASP55      -0.3021
     11 N           1.2727   -2.6605    0.1669 N.am    3  LEU33      -0.3025
     12 N          -1.1834   -0.1865   -0.2055 N.am    4  TRP44      -0.3022
     13 NE1        -5.4714   -0.5683   -1.3591 N.ar    4  TRP44      -0.3604
     14 CA          4.6879    0.9330    0.9827 C.3     1  PRO11       0.1023
     15 CB          5.2592    1.5539    2.2595 C.3     1  PRO11      -0.0243
     16 CG          4.0206    2.0465    2.9993 C.3     1  PRO11      -0.0350
     17 CD          3.1168    2.5316    1.8763 C.3     1  PRO11       0.0156
     18 C           4.3561   -0.5693    1.1566 C.2     1  PRO11       0.2342
     19 C           2.9456    1.8210   -0.5479 C.2     5  ASP55       0.2369
     20 CA          3.7070   -2.6423   -0.0637 C.3     2  VAL22       0.1017
     21 CA          1.6935    2.7120   -0.7217 C.3     5  ASP55       0.1047
     22 CB          4.7172   -3.5084   -0.8487 C.3     2  VAL22      -0.0197
     23 CA         -0.0859   -2.3828   -0.2822 C.3     3  LEU33       0.0996
     24 C           2.3204   -2.6752   -0.7256 C.2     2  VAL22       0.2342
     25 CB          1.6062    3.3300   -2.1131 C.3     5  ASP55       0.0138
     26 CA         -1.5941    1.0697    0.4347 C.3     4  TRP44       0.1034
     27 CB         -1.0402   -3.5452    0.0272 C.3     3  LEU33      -0.0236
     28 CG         -0.7059   -4.8703   -0.6880 C.3     3  LEU33      -0.0446
     29 C          -0.4209    2.0748    0.5079 C.2     4  TRP44       0.2343
     30 CB         -2.7714    1.7128   -0.3101 C.3     4  TRP44       0.0013
     31 C          -0.5248   -1.1485    0.5199 C.2     3  LEU33       0.2340
     32 CG1         4.2410   -4.9664   -0.9369 C.3     2  VAL22      -0.0605
     33 CG2         6.1013   -3.4812   -0.1920 C.3     2  VAL22      -0.0605
     34 CG         -3.9507    0.7891   -0.4548 C.ar    4  TRP44      -0.0201
     35 CG          1.1582    2.4075   -3.2499 C.2     5  ASP55       0.0440
     36 CD1        -1.6566   -5.9718   -0.2088 C.3     3  LEU33      -0.0626
     37 CD2        -0.7904   -4.7516   -2.2100 C.3     3  LEU33      -0.0626
     38 CD2        -4.7692    0.2495    0.5911 C.ar    4  TRP44       0.0029
     39 CD1        -4.4249    0.2646   -1.6421 C.ar    4  TRP44       0.0060
     40 CE2        -5.7003   -0.6036   -0.0037 C.ar    4  TRP44       0.0467
     41 CE3        -4.7916    0.3894    1.9943 C.ar    4  TRP44      -0.0523
     42 CZ2        -6.6469   -1.3265    0.7332 C.ar    4  TRP44      -0.0378
     43 CZ3        -5.7286   -0.3285    2.7468 C.ar    4  TRP44      -0.0611
     44 CH2        -6.6413   -1.1746    2.1228 C.ar    4  TRP44      -0.0598
     45 H           3.9081   -0.6572   -0.8497 H       2  VAL22       0.1495
     46 H           0.3177    1.2690   -1.2405 H       5  ASP55       0.1495
     47 H           1.4759   -2.4075    1.1317 H       3  LEU33       0.1495
     48 H          -1.0726   -0.1791   -1.2182 H       4  TRP44       0.1495
     49 HE1        -5.9927   -1.0968   -2.0437 H       4  TRP44       0.1653
     50 HA          5.3997    1.0329    0.1545 H       1  PRO11       0.0597
     51 HB1         5.8895    2.4139    1.9997 H       1  PRO11       0.0288
     52 HB2         5.8601    0.8659    2.8609 H       1  PRO11       0.0288
     53 HG1         4.2451    2.8334    3.7252 H       1  PRO11       0.0281
     54 HG2         3.5449    1.2164    3.5336 H       1  PRO11       0.0281
     55 HD1         2.0596    2.4143    2.1173 H       1  PRO11       0.0465
     56 HD2         3.3219    3.5814    1.6370 H       1  PRO11       0.0465
     57 HA          3.6202   -3.0325    0.9576 H       2  VAL22       0.0597
     58 HA          1.7250    3.5343   -0.0020 H       5  ASP55       0.0598
     59 HB          4.8197   -3.1205   -1.8706 H       2  VAL22       0.0318
     60 HA         -0.0979   -2.1414   -1.3492 H       3  LEU33       0.0594
     61 HB1         2.5732    3.7802   -2.3753 H       5  ASP55       0.0348
     62 HB2         0.8718    4.1472   -2.0915 H       5  ASP55       0.0348
     63 HA         -1.8711    0.8411    1.4705 H       4  TRP44       0.0598
     64 HB1        -2.0650   -3.2431   -0.2278 H       3  LEU33       0.0290
     65 HB2        -1.0426   -3.7265    1.1113 H       3  LEU33       0.0290
     66 HG          0.3136   -5.1755   -0.4217 H       3  LEU33       0.0296
     67 HB1        -2.4442    2.0367   -1.3075 H       4  TRP44       0.0337
     68 HB2        -3.0927    2.6214    0.2142 H       4  TRP44       0.0337
     69 HG11        4.0842   -5.3925    0.0602 H       2  VAL22       0.0233
     70 HG12        4.9782   -5.5864   -1.4579 H       2  VAL22       0.0233
     71 HG13        3.3005   -5.0520   -1.4903 H       2  VAL22       0.0233
     72 HG21        6.0550   -3.8375    0.8429 H       2  VAL22       0.0233
     73 HG22        6.5204   -2.4705   -0.1869 H       2  VAL22       0.0233
     74 HG23        6.8011   -4.1236   -0.7378 H       2  VAL22       0.0233
     75 HD11       -2.6970   -5.7348   -0.4565 H       3  LEU33       0.0232
     76 HD12       -1.5871   -6.1033    0.8761 H       3  LEU33       0.0232
     77 HD13       -1.4081   -6.9310   -0.6759 H       3  LEU33       0.0232
     78 HD21       -1.7759   -4.3937   -2.5261 H       3  LEU33       0.0232
     79 HD22       -0.6158   -5.7235   -2.6846 H       3  LEU33       0.0232
     80 HD23       -0.0373   -4.0632   -2.6014 H       3  LEU33       0.0232
     81 HD1        -4.0865    0.4025   -2.6615 H       4  TRP44       0.0810
     82 HE3        -4.0800    1.0395    2.4945 H       4  TRP44       0.0624
     83 HZ2        -7.3559   -1.9894    0.2490 H       4  TRP44       0.0638
     84 HZ3        -5.7340   -0.2267    3.8287 H       4  TRP44       0.0618
     85 HH2        -7.3575   -1.7282    2.7248 H       4  TRP44       0.0618
@<TRIPOS>BOND
     1     1    18    2
     2     2    19    2
     3     3    24    2
     4     4    29    2
     5     5    31    2
     6     6    35   ar
     7     7    35   ar
     8     8    14    1
     9     8    17    1
    10     8    19   am
    11     9    18   am
    12     9    20    1
    13    10    21    1
    14    10    29   am
    15    11    23    1
    16    11    24   am
    17    12    26    1
    18    12    31   am
    19    13    39   ar
    20    13    40   ar
    21    14    15    1
    22    14    18    1
    23    15    16    1
    24    16    17    1
    25    19    21    1
    26    20    22    1
    27    20    24    1
    28    21    25    1
    29    22    32    1
    30    22    33    1
    31    23    27    1
    32    23    31    1
    33    25    35    1
    34    26    29    1
    35    26    30    1
    36    27    28    1
    37    28    36    1
    38    28    37    1
    39    30    34    1
    40    34    38   ar
    41    34    39   ar
    42    38    40   ar
    43    38    41   ar
    44    40    42   ar
    45    41    43   ar
    46    42    44   ar
    47    43    44   ar
    48     9    45    1
    49    10    46    1
    50    11    47    1
    51    12    48    1
    52    13    49    1
    53    14    50    1
    54    15    51    1
    55    15    52    1
    56    16    53    1
    57    16    54    1
    58    17    55    1
    59    17    56    1
    60    20    57    1
    61    21    58    1
    62    22    59    1
    63    23    60    1
    64    25    61    1
    65    25    62    1
    66    26    63    1
    67    27    64    1
    68    27    65    1
    69    28    66    1
    70    30    67    1
    71    30    68    1
    72    32    69    1
    73    32    70    1
    74    32    71    1
    75    33    72    1
    76    33    73    1
    77    33    74    1
    78    36    75    1
    79    36    76    1
    80    36    77    1
    81    37    78    1
    82    37    79    1
    83    37    80    1
    84    39    81    1
    85    41    82    1
    86    42    83    1
    87    43    84    1
    88    44    85    1
