@<TRIPOS>MOLECULE
HTS1204-03362316-01
 87 90 0 0 0
SMALL
USER_CHARGES

@<TRIPOS>ATOM
      1 C1         -3.7070    0.4283   -0.4642 C.ar    1  UNK11      -0.0199
      2 N1         -5.3381   -0.7861   -1.3883 N.ar    1  UNK11      -0.3494
      3 C2          2.3147   -2.4043    0.0041 C.2     1  UNK11       0.3028
      4 C3         -4.1743   -0.1164   -1.6469 C.ar    1  UNK11       0.0086
      5 C4         -0.2270    1.7548    0.5903 C.2     1  UNK11       0.2342
      6 C5         -4.6471    0.0610    0.5541 C.ar    1  UNK11       0.0031
      7 C6         -0.4793   -1.6589    0.7180 C.2     1  UNK11       0.2340
      8 C7         -5.6512   -0.7039   -0.0498 C.ar    1  UNK11       0.0491
      9 N2          1.3025   -3.3194    0.1247 N.am    1  UNK11      -0.2879
     10 N3          3.6019   -2.9076    0.1089 N.am    1  UNK11      -0.2856
     11 N4         -0.8731   -0.5883   -0.0665 N.am    1  UNK11      -0.3022
     12 N5          0.8475    1.5901   -0.2599 N.am    1  UNK11      -0.3054
     13 C8         -1.3291    0.6717    0.5149 C.3     1  UNK11       0.1034
     14 C9         -0.0781   -2.8935   -0.1261 C.3     1  UNK11       0.1011
     15 C10         1.8529    2.6569   -0.4830 C.3     1  UNK11       0.0680
     16 C11        -2.4772    1.2859   -0.3157 C.3     1  UNK11       0.0013
     17 C12         3.3214    2.1496   -0.6356 C.2     1  UNK11       0.0623
     18 C13         1.6405    3.3880   -1.8255 C.3     1  UNK11       0.0133
     19 O1          2.0563   -1.2140   -0.1596 O.2     1  UNK11      -0.2526
     20 O2         -0.4916   -1.6557    1.9462 O.2     1  UNK11      -0.2738
     21 O3         -0.4255    2.7895    1.2327 O.2     1  UNK11      -0.2738
     22 N6         -0.1706    4.1976   -3.2498 N.ar    1  UNK11      -0.2598
     23 O4          3.5030    1.2274   -1.4851 O.co2   1  UNK11      -0.5479
     24 C14        -1.0122   -4.0835    0.1740 C.3     1  UNK11      -0.0236
     25 C15         0.3779    4.2035   -2.0029 C.ar    1  UNK11       0.0434
     26 O5          4.1739    2.7433    0.0863 O.co2   1  UNK11      -0.5479
     27 C16        -6.1353   -1.4668   -2.3830 C.3     1  UNK11       0.0119
     28 C17         4.6871   -1.9146    0.0275 C.3     1  UNK11       0.0161
     29 C18         3.9645   -4.3209    0.1779 C.3     1  UNK11       0.0161
     30 C19        -6.7288   -1.2360    0.6781 C.ar    1  UNK11      -0.0376
     31 C20        -4.7347    0.3071    1.9406 C.ar    1  UNK11      -0.0523
     32 C21        -2.5229   -3.8295   -0.0196 C.3     1  UNK11      -0.0446
     33 C22        -1.2535    4.9725   -3.4688 C.ar    1  UNK11       0.0279
     34 C23        -0.1392    5.0022   -0.9873 C.ar    1  UNK11      -0.0403
     35 C24        -3.1885   -3.2719    1.2429 C.3     1  UNK11      -0.0626
     36 C25        -3.2221   -5.1438   -0.3836 C.3     1  UNK11      -0.0626
     37 C26         6.1082   -2.4799   -0.0764 C.3     1  UNK11      -0.0371
     38 C27         4.3726   -4.8696   -1.1901 C.3     1  UNK11      -0.0371
     39 C28        -5.7996   -0.2256    2.6765 C.ar    1  UNK11      -0.0611
     40 C29        -6.7820   -0.9872    2.0519 C.ar    1  UNK11      -0.0598
     41 C30        -1.8365    5.7725   -2.5044 C.ar    1  UNK11      -0.0436
     42 C31        -1.2668    5.7824   -1.2391 C.ar    1  UNK11      -0.0586
     43 C32         6.4057   -3.2771   -1.3527 C.3     1  UNK11      -0.0516
     44 C33         5.2110   -3.9229   -2.0524 C.3     1  UNK11      -0.0516
     45 H          -3.7685   -0.0601   -2.6488 H       1  UNK11       0.0812
     46 H           1.5360   -4.2159   -0.2605 H       1  UNK11       0.1510
     47 H          -0.4584   -0.5214   -0.9888 H       1  UNK11       0.1495
     48 H           1.2138    0.6460   -0.4114 H       1  UNK11       0.1494
     49 H          -1.6607    0.4806    1.5417 H       1  UNK11       0.0598
     50 H          -0.1419   -2.6474   -1.1936 H       1  UNK11       0.0595
     51 H           1.8132    3.3573    0.3582 H       1  UNK11       0.0564
     52 H          -2.1036    1.5384   -1.3183 H       1  UNK11       0.0337
     53 H          -2.7892    2.2396    0.1315 H       1  UNK11       0.0337
     54 H           1.6672    2.6548   -2.6439 H       1  UNK11       0.0350
     55 H           2.4761    4.0791   -2.0052 H       1  UNK11       0.0350
     56 H          -0.8283   -4.4500    1.1932 H       1  UNK11       0.0290
     57 H          -0.7030   -4.9028   -0.4904 H       1  UNK11       0.0290
     58 H          -5.6931   -1.3218   -3.3719 H       1  UNK11       0.0456
     59 H          -7.1443   -1.0458   -2.3680 H       1  UNK11       0.0456
     60 H          -6.1579   -2.5320   -2.1388 H       1  UNK11       0.0456
     61 H           4.6169   -1.3035    0.9363 H       1  UNK11       0.0465
     62 H           4.4926   -1.2511   -0.8220 H       1  UNK11       0.0465
     63 H           3.1399   -4.9220    0.5713 H       1  UNK11       0.0465
     64 H           4.7651   -4.4535    0.9118 H       1  UNK11       0.0465
     65 H          -7.4977   -1.8318    0.1973 H       1  UNK11       0.0638
     66 H          -3.9705    0.8940    2.4424 H       1  UNK11       0.0624
     67 H          -2.6776   -3.1273   -0.8477 H       1  UNK11       0.0296
     68 H          -1.6481    4.9328   -4.4790 H       1  UNK11       0.0829
     69 H           0.3156    5.0168   -0.0017 H       1  UNK11       0.0635
     70 H          -2.9309   -3.8652    2.1269 H       1  UNK11       0.0232
     71 H          -4.2787   -3.2786    1.1460 H       1  UNK11       0.0232
     72 H          -2.8970   -2.2393    1.4356 H       1  UNK11       0.0232
     73 H          -3.0962   -5.8904    0.4085 H       1  UNK11       0.0232
     74 H          -2.8160   -5.5582   -1.3119 H       1  UNK11       0.0232
     75 H          -4.2955   -4.9852   -0.5333 H       1  UNK11       0.0232
     76 H           6.3350   -3.1003    0.7991 H       1  UNK11       0.0280
     77 H           6.8229   -1.6491   -0.0183 H       1  UNK11       0.0280
     78 H           3.4661   -5.1164   -1.7580 H       1  UNK11       0.0280
     79 H           4.9110   -5.8140   -1.0473 H       1  UNK11       0.0280
     80 H          -5.8510   -0.0448    3.7470 H       1  UNK11       0.0618
     81 H          -7.5996   -1.3964    2.6400 H       1  UNK11       0.0618
     82 H          -2.7075    6.3734   -2.7333 H       1  UNK11       0.0633
     83 H          -1.6889    6.3924   -0.4467 H       1  UNK11       0.0619
     84 H           7.1546   -4.0454   -1.1233 H       1  UNK11       0.0266
     85 H           6.8844   -2.6009   -2.0729 H       1  UNK11       0.0266
     86 H           4.5643   -3.1347   -2.4590 H       1  UNK11       0.0266
     87 H           5.5740   -4.4777   -2.9267 H       1  UNK11       0.0266
@<TRIPOS>BOND
     1     2     4   ar
     2     3     9   am
     3     1     4   ar
     4     5    13    1
     5     1     6   ar
     6     7    11   am
     7     6     8   ar
     8     9    14    1
     9     3    10   am
    10    11    13    1
    11     5    12   am
    12    13    16    1
    13     7    14    1
    14    12    15    1
    15     1    16    1
    16    15    17    1
    17    15    18    1
    18     3    19    2
    19     7    20    2
    20     5    21    2
    21    22    25   ar
    22    17    23   ar
    23    14    24    1
    24    18    25    1
    25    17    26   ar
    26     2    27    1
    27    10    28    1
    28    10    29    1
    29     8    30   ar
    30     6    31   ar
    31    24    32    1
    32    22    33   ar
    33    25    34   ar
    34    32    35    1
    35    32    36    1
    36    28    37    1
    37    29    38    1
    38    31    39   ar
    39    39    40   ar
    40    41    42   ar
    41    34    42   ar
    42    37    43    1
    43    38    44    1
    44     2     8   ar
    45    30    40   ar
    46    33    41   ar
    47    43    44    1
    48     4    45    1
    49     9    46    1
    50    11    47    1
    51    12    48    1
    52    13    49    1
    53    14    50    1
    54    15    51    1
    55    16    52    1
    56    16    53    1
    57    18    54    1
    58    18    55    1
    59    24    56    1
    60    24    57    1
    61    27    58    1
    62    27    59    1
    63    27    60    1
    64    28    61    1
    65    28    62    1
    66    29    63    1
    67    29    64    1
    68    30    65    1
    69    31    66    1
    70    32    67    1
    71    33    68    1
    72    34    69    1
    73    35    70    1
    74    35    71    1
    75    35    72    1
    76    36    73    1
    77    36    74    1
    78    36    75    1
    79    37    76    1
    80    37    77    1
    81    38    78    1
    82    38    79    1
    83    39    80    1
    84    40    81    1
    85    41    82    1
    86    42    83    1
    87    43    84    1
    88    43    85    1
    89    44    86    1
    90    44    87    1
@<TRIPOS>MOLECULE
16219006
 85 88 0 0 0
SMALL
GASTEIGER

@<TRIPOS>ATOM
      1 O           4.5078   -1.0447    2.2428 O.2     1  PRO11      -0.2738
      2 O           3.4143    1.1728   -1.4276 O.2     5  ASP55      -0.2735
      3 O           2.1319   -2.2287   -1.8897 O.2     2  VAL22      -0.2738
      4 O          -0.3367    2.8402    1.3427 O.2     4  TRP44      -0.2738
      5 O          -0.1034   -1.0821    1.7400 O.2     3  LEU33      -0.2738
      6 OD1        -0.6514    3.6383   -2.6695 O.co2   5  ASP55      -0.5497
      7 OD2         0.7080    5.3681   -2.0318 O.co2   5  ASP55      -0.5497
      8 N           3.4723    1.8232    0.7352 N.am    1  PRO11      -0.2884
      9 N           4.1223   -1.0819   -0.0093 N.am    2  VAL22      -0.3022
     10 N           0.5502    1.7781   -0.4940 N.am    5  ASP55      -0.3021
     11 N           1.3252   -2.7992    0.1788 N.am    3  LEU33      -0.3025
     12 N          -1.1445   -0.3304   -0.1580 N.am    4  TRP44      -0.3022
     13 NE1        -5.4878   -0.6040   -1.3519 N.ar    4  TRP44      -0.3604
     14 CA          4.6986    1.0737    1.0167 C.3     1  PRO11       0.1023
     15 CB          5.2308    1.7101    2.3018 C.3     1  PRO11      -0.0243
     16 CG          3.9658    2.1721    3.0148 C.3     1  PRO11      -0.0350
     17 CD          3.0750    2.6376    1.8728 C.3     1  PRO11       0.0156
     18 C           4.4199   -0.4427    1.1745 C.2     1  PRO11       0.2342
     19 C           2.9346    1.8847   -0.5345 C.2     5  ASP55       0.2369
     20 CA          3.7460   -2.4899   -0.0827 C.3     2  VAL22       0.1017
     21 CA          1.6448    2.7109   -0.7506 C.3     5  ASP55       0.1047
     22 CB          4.7582   -3.2988   -0.9235 C.3     2  VAL22      -0.0197
     23 CA         -0.0641   -2.5445   -0.1843 C.3     3  LEU33       0.0996
     24 C           2.3396   -2.5058   -0.7104 C.2     2  VAL22       0.2342
     25 CB          1.6048    3.2061   -2.1893 C.3     5  ASP55       0.0138
     26 CA         -1.5539    0.9429    0.4533 C.3     4  TRP44       0.1034
     27 CB         -1.0103   -3.6622    0.2758 C.3     3  LEU33      -0.0236
     28 CG         -0.9439   -4.9528   -0.5679 C.3     3  LEU33      -0.0446
     29 C          -0.3744    1.9336    0.5127 C.2     4  TRP44       0.2343
     30 CB         -2.7190    1.5959   -0.3052 C.3     4  TRP44       0.0013
     31 C          -0.4294   -1.2522    0.5646 C.2     3  LEU33       0.2340
     32 CG1         4.2925   -4.7452   -1.1296 C.3     2  VAL22      -0.0605
     33 CG2         6.1372   -3.3144   -0.2524 C.3     2  VAL22      -0.0605
     34 CG         -3.9128    0.6892   -0.4468 C.ar    4  TRP44      -0.0201
     35 CG          0.4366    4.1648   -2.2977 C.2     5  ASP55       0.0440
     36 CD1         0.3587   -5.7295   -0.3739 C.3     3  LEU33      -0.0626
     37 CD2        -2.1256   -5.8605   -0.2122 C.3     3  LEU33      -0.0626
     38 CD2        -4.7401    0.1669    0.6004 C.ar    4  TRP44       0.0029
     39 CD1        -4.4144    0.1935   -1.6354 C.ar    4  TRP44       0.0060
     40 CE2        -5.7019   -0.6514    0.0055 C.ar    4  TRP44       0.0467
     41 CE3        -4.7563    0.3063    2.0037 C.ar    4  TRP44      -0.0523
     42 CZ2        -6.6692   -1.3457    0.7429 C.ar    4  TRP44      -0.0378
     43 CZ3        -5.7146   -0.3821    2.7566 C.ar    4  TRP44      -0.0611
     44 CH2        -6.6548   -1.1979    2.1329 C.ar    4  TRP44      -0.0598
     45 H           3.9029   -0.4854   -0.8154 H       2  VAL22       0.1495
     46 H           0.3839    1.0714   -1.1970 H       5  ASP55       0.1495
     47 H           1.5367   -2.6521    1.1639 H       3  LEU33       0.1495
     48 H          -1.3200   -0.4629   -1.1465 H       4  TRP44       0.1495
     49 HE1        -6.0485   -1.0878   -2.0383 H       4  TRP44       0.1653
     50 HA          5.4185    1.1998    0.1990 H       1  PRO11       0.0597
     51 HB1         5.8439    2.5851    2.0517 H       1  PRO11       0.0288
     52 HB2         5.8374    1.0393    2.9167 H       1  PRO11       0.0288
     53 HG1         4.1548    2.9615    3.7476 H       1  PRO11       0.0281
     54 HG2         3.4997    1.3274    3.5354 H       1  PRO11       0.0281
     55 HD1         2.0185    2.5027    2.1030 H       1  PRO11       0.0465
     56 HD2         3.2646    3.6874    1.6241 H       1  PRO11       0.0465
     57 HA          3.6947   -2.9132    0.9275 H       2  VAL22       0.0597
     58 HA          1.6034    3.5503   -0.0510 H       5  ASP55       0.0598
     59 HB          4.8688   -2.8349   -1.9125 H       2  VAL22       0.0318
     60 HA         -0.1614   -2.3837   -1.2630 H       3  LEU33       0.0594
     61 HB1         1.4889    2.3858   -2.9081 H       5  ASP55       0.0348
     62 HB2         2.5330    3.7319   -2.4454 H       5  ASP55       0.0348
     63 HA         -1.8367    0.7300    1.4910 H       4  TRP44       0.0598
     64 HB1        -2.0378   -3.2756    0.2286 H       3  LEU33       0.0290
     65 HB2        -0.8267   -3.9018    1.3321 H       3  LEU33       0.0290
     66 HG         -1.0343   -4.6888   -1.6291 H       3  LEU33       0.0296
     67 HB1        -2.3847    1.9006   -1.3054 H       4  TRP44       0.0337
     68 HB2        -3.0289    2.5161    0.2061 H       4  TRP44       0.0337
     69 HG11        4.0748   -5.2334   -0.1734 H       2  VAL22       0.0233
     70 HG12        5.0598   -5.3346   -1.6431 H       2  VAL22       0.0233
     71 HG13        3.3906   -4.7866   -1.7477 H       2  VAL22       0.0233
     72 HG21        6.0836   -3.7517    0.7507 H       2  VAL22       0.0233
     73 HG22        6.5486   -2.3044   -0.1620 H       2  VAL22       0.0233
     74 HG23        6.8485   -3.9059   -0.8392 H       2  VAL22       0.0233
     75 HD11        0.5697   -5.8978    0.6875 H       3  LEU33       0.0232
     76 HD12        1.2052   -5.1997   -0.8140 H       3  LEU33       0.0232
     77 HD13        0.3097   -6.7068   -0.8664 H       3  LEU33       0.0232
     78 HD21       -2.0948   -6.1576    0.8417 H       3  LEU33       0.0232
     79 HD22       -2.1153   -6.7706   -0.8217 H       3  LEU33       0.0232
     80 HD23       -3.0776   -5.3512   -0.3951 H       3  LEU33       0.0232
     81 HD1        -4.0963    0.3540   -2.6579 H       4  TRP44       0.0810
     82 HE3        -4.0307    0.9423    2.5027 H       4  TRP44       0.0624
     83 HZ2        -7.4060   -1.9769    0.2584 H       4  TRP44       0.0638
     84 HZ3        -5.7197   -0.2752    3.8382 H       4  TRP44       0.0618
     85 HH2        -7.3906   -1.7248    2.7351 H       4  TRP44       0.0618
@<TRIPOS>BOND
     1     1    18    2
     2     2    19    2
     3     3    24    2
     4     4    29    2
     5     5    31    2
     6     6    35   ar
     7     7    35   ar
     8     8    14    1
     9     8    17    1
    10     8    19   am
    11     9    18   am
    12     9    20    1
    13    10    21    1
    14    10    29   am
    15    11    23    1
    16    11    24   am
    17    12    26    1
    18    12    31   am
    19    13    39   ar
    20    13    40   ar
    21    14    15    1
    22    14    18    1
    23    15    16    1
    24    16    17    1
    25    19    21    1
    26    20    22    1
    27    20    24    1
    28    21    25    1
    29    22    32    1
    30    22    33    1
    31    23    27    1
    32    23    31    1
    33    25    35    1
    34    26    29    1
    35    26    30    1
    36    27    28    1
    37    28    36    1
    38    28    37    1
    39    30    34    1
    40    34    38   ar
    41    34    39   ar
    42    38    40   ar
    43    38    41   ar
    44    40    42   ar
    45    41    43   ar
    46    42    44   ar
    47    43    44   ar
    48     9    45    1
    49    10    46    1
    50    11    47    1
    51    12    48    1
    52    13    49    1
    53    14    50    1
    54    15    51    1
    55    15    52    1
    56    16    53    1
    57    16    54    1
    58    17    55    1
    59    17    56    1
    60    20    57    1
    61    21    58    1
    62    22    59    1
    63    23    60    1
    64    25    61    1
    65    25    62    1
    66    26    63    1
    67    27    64    1
    68    27    65    1
    69    28    66    1
    70    30    67    1
    71    30    68    1
    72    32    69    1
    73    32    70    1
    74    32    71    1
    75    33    72    1
    76    33    73    1
    77    33    74    1
    78    36    75    1
    79    36    76    1
    80    36    77    1
    81    37    78    1
    82    37    79    1
    83    37    80    1
    84    39    81    1
    85    41    82    1
    86    42    83    1
    87    43    84    1
    88    44    85    1
