@<TRIPOS>MOLECULE
9911482
 51 53 0 0 0
SMALL
GASTEIGER

@<TRIPOS>ATOM
      1 S           3.4700   -0.6306    1.9032 S.O2    1  LIG11       0.0758
      2 S           2.1075   -2.8554   -1.4794 S.2     1  LIG11      -0.0902
      3 O           4.6853    0.9310   -0.9161 O.2     1  LIG11      -0.3377
      4 O           2.2633    0.0796    2.2508 O.2     1  LIG11      -0.1499
      5 O           4.1331   -1.5271    2.8238 O.2     1  LIG11      -0.1499
      6 O           0.3423   -1.5584    1.7221 O.2     1  LIG11      -0.2692
      7 O          -1.3390   -4.1096   -1.4235 O.2     1  LIG11      -0.2923
      8 N          -0.4561   -1.8321   -0.4066 N.am    1  LIG11      -0.2802
      9 N           4.5880    0.6091    1.5098 N.pl3   1  LIG11      -0.1831
     10 N           4.0880    1.7012   -1.8904 N.ar    1  LIG11      -0.0810
     11 C          -1.8088   -1.6288   -0.0361 C.ar    1  LIG11       0.0471
     12 C           3.1495   -1.6102    0.5049 C.ar    1  LIG11       0.1277
     13 C          -2.2470   -0.3698    0.4200 C.ar    1  LIG11      -0.0283
     14 C          -2.7302   -2.6903   -0.1541 C.ar    1  LIG11       0.0388
     15 C           1.9118   -1.9831   -0.0009 C.ar    1  LIG11       0.1007
     16 C          -4.5052   -1.2674    0.7091 C.ar    1  LIG11      -0.0494
     17 C          -3.5902   -0.2139    0.8083 C.ar    1  LIG11      -0.0541
     18 C          -4.0684   -2.5049    0.2243 C.ar    1  LIG11      -0.0466
     19 C           0.5691   -1.7530    0.5315 C.2     1  LIG11       0.2568
     20 C           4.1959    1.2709    0.3055 C.ar    1  LIG11       0.2399
     21 C           4.2375   -2.1121   -0.2854 C.ar    1  LIG11      -0.0273
     22 C           3.2862    2.2993    0.1646 C.ar    1  LIG11       0.0350
     23 C          -1.3513    0.8376    0.5057 C.3     1  LIG11      -0.0379
     24 C          -2.2753   -4.0291   -0.6281 C.2     1  LIG11       0.1619
     25 C           3.2407    2.5082   -1.2438 C.ar    1  LIG11       0.0854
     26 C           3.8060   -2.7862   -1.4013 C.ar    1  LIG11      -0.0217
     27 C          -5.9299   -1.0907    1.1470 C.3     1  LIG11      -0.0397
     28 C           2.4589    2.9773    1.1908 C.3     1  LIG11      -0.0330
     29 C           2.3772    3.4388   -2.0081 C.3     1  LIG11      -0.0188
     30 C          -2.9752   -5.2583   -0.1101 C.3     1  LIG11      -0.0013
     31 H          -0.3013   -2.5806   -1.0870 H       1  LIG11       0.1552
     32 H           4.5281    1.2358    2.3127 H       1  LIG11       0.1768
     33 H          -3.9247    0.7529    1.1836 H       1  LIG11       0.0623
     34 H          -4.7857   -3.3178    0.1461 H       1  LIG11       0.0628
     35 H           5.2857   -1.9507   -0.0584 H       1  LIG11       0.0643
     36 H          -0.4619    0.7461   -0.1248 H       1  LIG11       0.0278
     37 H          -1.8841    1.7266    0.1489 H       1  LIG11       0.0278
     38 H          -1.0391    1.0058    1.5406 H       1  LIG11       0.0278
     39 H           4.4100   -3.2376   -2.1777 H       1  LIG11       0.0694
     40 H          -6.1718   -0.0349    1.3083 H       1  LIG11       0.0278
     41 H          -6.6140   -1.4717    0.3817 H       1  LIG11       0.0278
     42 H          -6.1026   -1.6293    2.0842 H       1  LIG11       0.0278
     43 H           2.8583    2.8330    2.1983 H       1  LIG11       0.0280
     44 H           2.4144    4.0551    1.0045 H       1  LIG11       0.0280
     45 H           1.4362    2.5864    1.1674 H       1  LIG11       0.0280
     46 H           2.7029    3.5266   -3.0500 H       1  LIG11       0.0294
     47 H           1.3431    3.0794   -2.0047 H       1  LIG11       0.0294
     48 H           2.3971    4.4389   -1.5646 H       1  LIG11       0.0294
     49 H          -2.2868   -6.1074   -0.1609 H       1  LIG11       0.0309
     50 H          -3.2584   -5.1328    0.9388 H       1  LIG11       0.0309
     51 H          -3.8552   -5.4708   -0.7215 H       1  LIG11       0.0309
@<TRIPOS>BOND
     1     1     4    2
     2     1     5    2
     3     1     9    1
     4     1    12    1
     5     2    15   ar
     6     2    26   ar
     7     3    10   ar
     8     3    20   ar
     9     6    19    2
    10     7    24    2
    11     8    11    1
    12     8    19   am
    13     9    20    1
    14    10    25   ar
    15    11    13   ar
    16    11    14   ar
    17    12    15   ar
    18    12    21   ar
    19    13    17   ar
    20    13    23    1
    21    14    18   ar
    22    14    24    1
    23    15    19    1
    24    16    17   ar
    25    16    18   ar
    26    16    27    1
    27    20    22   ar
    28    21    26   ar
    29    22    25   ar
    30    22    28    1
    31    24    30    1
    32    25    29    1
    33     8    31    1
    34     9    32    1
    35    17    33    1
    36    18    34    1
    37    21    35    1
    38    23    36    1
    39    23    37    1
    40    23    38    1
    41    26    39    1
    42    27    40    1
    43    27    41    1
    44    27    42    1
    45    28    43    1
    46    28    44    1
    47    28    45    1
    48    29    46    1
    49    29    47    1
    50    29    48    1
    51    30    49    1
    52    30    50    1
    53    30    51    1
@<TRIPOS>MOLECULE
16219006
 85 88 0 0 0
SMALL
GASTEIGER

@<TRIPOS>ATOM
      1 O           4.2052   -0.9956    2.2276 O.2     1  PRO11      -0.2738
      2 O           3.2826    1.0914   -1.4007 O.2     5  ASP55      -0.2735
      3 O           2.0132   -1.8009   -1.8090 O.2     2  VAL22      -0.2738
      4 O          -0.3932    3.0238    1.1975 O.2     4  TRP44      -0.2738
      5 O          -0.3268   -1.2309    1.7402 O.2     3  LEU33      -0.2738
      6 OD1         2.8968    5.0753   -3.3476 O.co2   5  ASP55      -0.5497
      7 OD2         3.5915    4.6282   -1.2228 O.co2   5  ASP55      -0.5497
      8 N           3.4934    1.8259    0.7315 N.am    1  PRO11      -0.2884
      9 N           4.2093   -1.1229   -0.0608 N.am    2  VAL22      -0.3022
     10 N           0.5361    1.9446   -0.6034 N.am    5  ASP55      -0.3021
     11 N           1.2182   -2.8492    0.0564 N.am    3  LEU33      -0.3025
     12 N          -1.0758   -0.2528   -0.1955 N.am    4  TRP44      -0.3022
     13 NE1        -5.6245   -0.4074   -1.2754 N.ar    4  TRP44      -0.3604
     14 CA          4.7075    1.0469    0.9671 C.3     1  PRO11       0.1023
     15 CB          5.3087    1.6553    2.2366 C.3     1  PRO11      -0.0243
     16 CG          4.1045    2.2481    2.9583 C.3     1  PRO11      -0.0350
     17 CD          3.2441    2.7597    1.8155 C.3     1  PRO11       0.0156
     18 C           4.3610   -0.4490    1.1370 C.2     1  PRO11       0.2342
     19 C           2.9362    1.9023   -0.5300 C.2     5  ASP55       0.2369
     20 CA          3.6443   -2.4656   -0.1170 C.3     2  VAL22       0.1017
     21 CA          1.7110    2.8290   -0.7351 C.3     5  ASP55       0.1047
     22 CB          4.5560   -3.4473   -0.8858 C.3     2  VAL22      -0.0197
     23 CA         -0.1665   -2.5389   -0.2919 C.3     3  LEU33       0.0996
     24 C           2.2346   -2.3345   -0.7239 C.2     2  VAL22       0.2342
     25 CB          1.7227    3.4625   -2.1156 C.3     5  ASP55       0.0138
     26 CA         -1.4787    0.9968    0.4581 C.3     4  TRP44       0.1034
     27 CB         -1.0754   -3.7185    0.0670 C.3     3  LEU33      -0.0236
     28 CG         -2.5542   -3.5315   -0.3213 C.3     3  LEU33      -0.0446
     29 C          -0.3631    2.0616    0.4312 C.2     4  TRP44       0.2343
     30 CB         -2.7406    1.6063   -0.1721 C.3     4  TRP44       0.0013
     31 C          -0.5274   -1.2868    0.5273 C.2     3  LEU33       0.2340
     32 CG1         4.8146   -3.0622   -2.3450 C.3     2  VAL22      -0.0605
     33 CG2         4.0133   -4.8787   -0.8131 C.3     2  VAL22      -0.0605
     34 CG         -3.9069    0.6663   -0.3339 C.ar    4  TRP44      -0.0201
     35 CG          2.8521    4.4800   -2.2337 C.2     5  ASP55       0.0440
     36 CD1        -2.7539   -3.3113   -1.8206 C.3     3  LEU33      -0.0626
     37 CD2        -3.3694   -4.7424    0.1371 C.3     3  LEU33      -0.0626
     38 CD2        -4.4760   -0.2368    0.6283 C.ar    4  TRP44       0.0029
     39 CD1        -4.6561    0.5327   -1.4893 C.ar    4  TRP44       0.0060
     40 CE2        -5.5268   -0.9095   -0.0004 C.ar    4  TRP44       0.0467
     41 CE3        -4.1893   -0.5711    1.9692 C.ar    4  TRP44      -0.0523
     42 CZ2        -6.2852   -1.9030    0.6327 C.ar    4  TRP44      -0.0378
     43 CZ3        -4.9275   -1.5718    2.6134 C.ar    4  TRP44      -0.0611
     44 CH2        -5.9592   -2.2293    1.9513 C.ar    4  TRP44      -0.0598
     45 H           4.0225   -0.5167   -0.8704 H       2  VAL22       0.1495
     46 H           0.6195    1.0504   -1.0722 H       5  ASP55       0.1495
     47 H           1.4071   -2.8897    1.0553 H       3  LEU33       0.1495
     48 H          -1.1321   -0.3102   -1.2046 H       4  TRP44       0.1495
     49 HE1        -6.3124   -0.7001   -1.9549 H       4  TRP44       0.1653
     50 HA          5.4019    1.1527    0.1248 H       1  PRO11       0.0597
     51 HB1         5.9983    2.4638    1.9636 H       1  PRO11       0.0288
     52 HB2         5.8578    0.9402    2.8566 H       1  PRO11       0.0288
     53 HG1         4.3769    3.0366    3.6650 H       1  PRO11       0.0281
     54 HG2         3.5732    1.4627    3.5089 H       1  PRO11       0.0281
     55 HD1         2.1839    2.7831    2.0775 H       1  PRO11       0.0465
     56 HD2         3.5630    3.7571    1.4950 H       1  PRO11       0.0465
     57 HA          3.5453   -2.8431    0.9073 H       2  VAL22       0.0597
     58 HA          1.6618    3.6058    0.0314 H       5  ASP55       0.0598
     59 HB          5.5319   -3.4454   -0.3812 H       2  VAL22       0.0318
     60 HA         -0.2282   -2.3221   -1.3618 H       3  LEU33       0.0594
     61 HB1         0.7730    3.9799   -2.2995 H       5  ASP55       0.0348
     62 HB2         1.8417    2.7093   -2.9036 H       5  ASP55       0.0348
     63 HA         -1.6525    0.7852    1.5179 H       4  TRP44       0.0598
     64 HB1        -1.0158   -3.9065    1.1482 H       3  LEU33       0.0290
     65 HB2        -0.6876   -4.6244   -0.4182 H       3  LEU33       0.0290
     66 HG         -2.9423   -2.6568    0.2060 H       3  LEU33       0.0296
     67 HB1        -2.4836    2.0115   -1.1610 H       4  TRP44       0.0337
     68 HB2        -3.0713    2.4657    0.4257 H       4  TRP44       0.0337
     69 HG11        3.9076   -3.1326   -2.9531 H       2  VAL22       0.0233
     70 HG12        5.5559   -3.7364   -2.7885 H       2  VAL22       0.0233
     71 HG13        5.2083   -2.0448   -2.4267 H       2  VAL22       0.0233
     72 HG21        3.0588   -4.9764   -1.3405 H       2  VAL22       0.0233
     73 HG22        3.8611   -5.1861    0.2272 H       2  VAL22       0.0233
     74 HG23        4.7185   -5.5831   -1.2668 H       2  VAL22       0.0233
     75 HD11       -2.3028   -4.1207   -2.4045 H       3  LEU33       0.0232
     76 HD12       -2.3131   -2.3658   -2.1498 H       3  LEU33       0.0232
     77 HD13       -3.8202   -3.2685   -2.0688 H       3  LEU33       0.0232
     78 HD21       -3.0269   -5.6602   -0.3525 H       3  LEU33       0.0232
     79 HD22       -4.4305   -4.6091   -0.0976 H       3  LEU33       0.0232
     80 HD23       -3.2835   -4.8814    1.2201 H       3  LEU33       0.0232
     81 HD1        -4.5798    1.0349   -2.4450 H       4  TRP44       0.0810
     82 HE3        -3.3865   -0.0794    2.5104 H       4  TRP44       0.0624
     83 HZ2        -7.0922   -2.4137    0.1187 H       4  TRP44       0.0638
     84 HZ3        -4.6820   -1.8382    3.6380 H       4  TRP44       0.0618
     85 HH2        -6.5180   -3.0062    2.4660 H       4  TRP44       0.0618
@<TRIPOS>BOND
     1     1    18    2
     2     2    19    2
     3     3    24    2
     4     4    29    2
     5     5    31    2
     6     6    35   ar
     7     7    35   ar
     8     8    14    1
     9     8    17    1
    10     8    19   am
    11     9    18   am
    12     9    20    1
    13    10    21    1
    14    10    29   am
    15    11    23    1
    16    11    24   am
    17    12    26    1
    18    12    31   am
    19    13    39   ar
    20    13    40   ar
    21    14    15    1
    22    14    18    1
    23    15    16    1
    24    16    17    1
    25    19    21    1
    26    20    22    1
    27    20    24    1
    28    21    25    1
    29    22    32    1
    30    22    33    1
    31    23    27    1
    32    23    31    1
    33    25    35    1
    34    26    29    1
    35    26    30    1
    36    27    28    1
    37    28    36    1
    38    28    37    1
    39    30    34    1
    40    34    38   ar
    41    34    39   ar
    42    38    40   ar
    43    38    41   ar
    44    40    42   ar
    45    41    43   ar
    46    42    44   ar
    47    43    44   ar
    48     9    45    1
    49    10    46    1
    50    11    47    1
    51    12    48    1
    52    13    49    1
    53    14    50    1
    54    15    51    1
    55    15    52    1
    56    16    53    1
    57    16    54    1
    58    17    55    1
    59    17    56    1
    60    20    57    1
    61    21    58    1
    62    22    59    1
    63    23    60    1
    64    25    61    1
    65    25    62    1
    66    26    63    1
    67    27    64    1
    68    27    65    1
    69    28    66    1
    70    30    67    1
    71    30    68    1
    72    32    69    1
    73    32    70    1
    74    32    71    1
    75    33    72    1
    76    33    73    1
    77    33    74    1
    78    36    75    1
    79    36    76    1
    80    36    77    1
    81    37    78    1
    82    37    79    1
    83    37    80    1
    84    39    81    1
    85    41    82    1
    86    42    83    1
    87    43    84    1
    88    44    85    1
