@<TRIPOS>MOLECULE
02228316B
 82 86 0 0 0
SMALL
GASTEIGER

@<TRIPOS>ATOM
      1 C          -5.4113    0.2765   -1.3310 C.3     1  LIG11       0.2491
      2 C          -4.6987   -0.6564   -0.3725 C.2     1  LIG11       0.3556
      3 N          -4.5086    1.4523   -1.4219 N.2     1  LIG11      -0.0687
      4 C          -5.6602   -0.3136   -2.7198 C.3     1  LIG11       0.0059
      5 C          -6.7721    0.7202   -0.7847 C.3     1  LIG11       0.0059
      6 N          -3.6249    0.0455    0.0936 N.am    1  LIG11      -0.1529
      7 O          -5.0394   -1.7868   -0.0611 O.2     1  LIG11      -0.2422
      8 C          -3.5652    1.2210   -0.5612 C.2     1  LIG11       0.2916
      9 C          -7.1770   -0.2946   -2.8985 C.3     1  LIG11      -0.0481
     10 C          -7.6431    0.8570   -2.0240 C.3     1  LIG11      -0.0481
     11 C          -2.7564   -0.4626    1.1400 C.3     1  LIG11       0.1137
     12 C          -2.4444    2.2012   -0.2998 C.3     1  LIG11       0.0509
     13 C          -1.4791   -1.0641    0.6198 C.ar    1  LIG11      -0.0073
     14 C          -2.5022    3.4891   -1.1210 C.3     1  LIG11      -0.0424
     15 C          -1.4575   -2.2664   -0.0750 C.ar    1  LIG11      -0.0491
     16 C          -0.2668   -0.4384    0.7989 C.ar    1  LIG11      -0.0544
     17 C          -3.5870    4.4574   -0.6451 C.3     1  LIG11      -0.0554
     18 C          -0.2455   -2.8881   -0.5324 C.ar    1  LIG11      -0.0138
     19 C           0.9130   -1.0318    0.3253 C.ar    1  LIG11      -0.0533
     20 C          -3.5587    5.7492   -1.4482 C.3     1  LIG11      -0.0653
     21 C           1.0355   -2.2966   -0.2650 C.ar    1  LIG11      -0.0106
     22 C          -0.5390   -4.1489   -1.3305 C.3     1  LIG11       0.0732
     23 C           2.4431   -2.8779   -0.5513 C.ar    1  LIG11       0.0091
     24 O          -0.0538   -5.3493   -0.7460 O.3     1  LIG11      -0.3754
     25 C           3.7188   -2.5611    0.0437 C.ar    1  LIG11       0.1162
     26 C           2.5502   -3.8982   -1.5338 C.ar    1  LIG11      -0.0521
     27 C          -0.7178   -5.7405    0.4552 C.3     1  LIG11       0.0453
     28 S           4.1349   -1.2579    1.2300 S.O2    1  LIG11       0.0741
     29 C           4.8930   -3.3136   -0.2808 C.ar    1  LIG11      -0.0345
     30 C           3.7086   -4.6331   -1.8364 C.ar    1  LIG11      -0.0611
     31 C          -2.1762   -6.1141    0.2367 C.3     1  LIG11      -0.0416
     32 N           4.5226    0.0513    0.2180 N.pl3   1  LIG11      -0.1965
     33 O           3.0391   -0.9511    2.1157 O.2     1  LIG11      -0.1499
     34 O           5.4157   -1.5886    1.8373 O.2     1  LIG11      -0.1499
     35 C           4.8862   -4.3528   -1.1928 C.ar    1  LIG11      -0.0599
     36 C           3.6092    1.0710   -0.0172 C.ar    1  LIG11       0.1837
     37 C           3.2139    2.1060    0.8687 C.ar    1  LIG11       0.0342
     38 N           2.9915    1.1714   -1.1965 N.ar    1  LIG11      -0.0614
     39 C           2.2356    2.7772    0.1621 C.ar    1  LIG11       0.1390
     40 C           3.6704    2.3778    2.2482 C.3     1  LIG11      -0.0330
     41 O           2.1074    2.2241   -1.0719 O.2     1  LIG11      -0.3578
     42 C           1.3236    3.8960    0.4678 C.3     1  LIG11      -0.0034
     43 H          -5.2719   -1.3312   -2.8337 H       1  LIG11       0.0316
     44 H          -5.1957    0.3030   -3.4992 H       1  LIG11       0.0316
     45 H          -6.7289    1.6590   -0.2219 H       1  LIG11       0.0316
     46 H          -7.1980   -0.0430   -0.1214 H       1  LIG11       0.0316
     47 H          -7.6071   -1.2368   -2.5385 H       1  LIG11       0.0267
     48 H          -7.4695   -0.1662   -3.9447 H       1  LIG11       0.0267
     49 H          -7.4510    1.8159   -2.5196 H       1  LIG11       0.0267
     50 H          -8.7096    0.7985   -1.7894 H       1  LIG11       0.0267
     51 H          -3.2914   -1.2222    1.7233 H       1  LIG11       0.0783
     52 H          -2.5326    0.3601    1.8286 H       1  LIG11       0.0783
     53 H          -1.5075    1.6923   -0.5484 H       1  LIG11       0.0387
     54 H          -2.4169    2.4351    0.7701 H       1  LIG11       0.0387
     55 H          -2.6485    3.2553   -2.1825 H       1  LIG11       0.0271
     56 H          -1.5288    3.9887   -1.0410 H       1  LIG11       0.0271
     57 H          -2.4154   -2.7530   -0.2699 H       1  LIG11       0.0625
     58 H          -0.1950    0.5220    1.3040 H       1  LIG11       0.0622
     59 H          -3.4408    4.6904    0.4158 H       1  LIG11       0.0263
     60 H          -4.5789    4.0042   -0.7416 H       1  LIG11       0.0263
     61 H           1.7711   -0.4087    0.4385 H       1  LIG11       0.0624
     62 H          -2.6034    6.2684   -1.3205 H       1  LIG11       0.0230
     63 H          -4.3571    6.4202   -1.1165 H       1  LIG11       0.0230
     64 H          -3.7022    5.5514   -2.5154 H       1  LIG11       0.0230
     65 H          -0.1464   -4.0351   -2.3457 H       1  LIG11       0.0610
     66 H          -1.6109   -4.2608   -1.5322 H       1  LIG11       0.0610
     67 H           1.7114   -4.1852   -2.1440 H       1  LIG11       0.0624
     68 H          -0.6196   -4.9629    1.2197 H       1  LIG11       0.0557
     69 H          -0.1855   -6.6217    0.8272 H       1  LIG11       0.0557
     70 H           5.8531   -3.0888    0.1835 H       1  LIG11       0.0637
     71 H           3.6649   -5.4258   -2.5794 H       1  LIG11       0.0618
     72 H          -2.7880   -5.2330    0.0196 H       1  LIG11       0.0252
     73 H          -2.5902   -6.5861    1.1322 H       1  LIG11       0.0252
     74 H          -2.2819   -6.7981   -0.6112 H       1  LIG11       0.0252
     75 H           5.4584    0.3611    0.4727 H       1  LIG11       0.1753
     76 H           5.7908   -4.9134   -1.4074 H       1  LIG11       0.0618
     77 H           4.5124    1.7385    2.5289 H       1  LIG11       0.0280
     78 H           2.8580    2.2058    2.9613 H       1  LIG11       0.0280
     79 H           3.9969    3.4187    2.3418 H       1  LIG11       0.0280
     80 H           1.7718    4.5827    1.1916 H       1  LIG11       0.0309
     81 H           0.3887    3.5149    0.8916 H       1  LIG11       0.0309
     82 H           1.0814    4.4657   -0.4347 H       1  LIG11       0.0309
@<TRIPOS>BOND
     1     1     5    1
     2     1     4    1
     3     1     2    1
     4     1     3    1
     5     2     6   am
     6     2     7    2
     7     3     8    2
     8     4     9    1
     9     5    10    1
    10     6     8    1
    11     6    11    1
    12     8    12    1
    13     9    10    1
    14    11    13    1
    15    12    14    1
    16    13    15   ar
    17    13    16   ar
    18    14    17    1
    19    15    18   ar
    20    16    19   ar
    21    17    20    1
    22    18    21   ar
    23    18    22    1
    24    19    21   ar
    25    21    23    1
    26    22    24    1
    27    23    26   ar
    28    23    25   ar
    29    24    27    1
    30    25    29   ar
    31    25    28    1
    32    26    30   ar
    33    27    31    1
    34    28    34    2
    35    28    33    2
    36    28    32    1
    37    29    35   ar
    38    30    35   ar
    39    32    36    1
    40    36    37   ar
    41    36    38   ar
    42    37    39   ar
    43    37    40    1
    44    38    41   ar
    45    39    41   ar
    46    39    42    1
    47     4    43    1
    48     4    44    1
    49     5    45    1
    50     5    46    1
    51     9    47    1
    52     9    48    1
    53    10    49    1
    54    10    50    1
    55    11    51    1
    56    11    52    1
    57    12    53    1
    58    12    54    1
    59    14    55    1
    60    14    56    1
    61    15    57    1
    62    16    58    1
    63    17    59    1
    64    17    60    1
    65    19    61    1
    66    20    62    1
    67    20    63    1
    68    20    64    1
    69    22    65    1
    70    22    66    1
    71    26    67    1
    72    27    68    1
    73    27    69    1
    74    29    70    1
    75    30    71    1
    76    31    72    1
    77    31    73    1
    78    31    74    1
    79    32    75    1
    80    35    76    1
    81    40    77    1
    82    40    78    1
    83    40    79    1
    84    42    80    1
    85    42    81    1
    86    42    82    1
@<TRIPOS>MOLECULE
16219006
 85 88 0 0 0
SMALL
GASTEIGER

@<TRIPOS>ATOM
      1 O           4.1595   -1.0570    2.2536 O.2     1  PRO11      -0.2738
      2 O           3.0771    0.9638   -1.3327 O.2     5  ASP55      -0.2735
      3 O           2.1429   -2.3169   -1.9198 O.2     2  VAL22      -0.2738
      4 O          -0.5282    2.9852    1.2259 O.2     4  TRP44      -0.2738
      5 O          -0.2891   -1.1205    1.7371 O.2     3  LEU33      -0.2738
      6 OD1         2.9204    5.0081   -3.2737 O.co2   5  ASP55      -0.5497
      7 OD2         3.5746    4.5180   -1.1454 O.co2   5  ASP55      -0.5497
      8 N           3.3879    1.7587    0.7665 N.am    1  PRO11      -0.2884
      9 N           4.1635   -1.2019   -0.0309 N.am    2  VAL22      -0.3022
     10 N           0.4065    1.9470   -0.5975 N.am    5  ASP55      -0.3021
     11 N           1.2829   -2.7598    0.1537 N.am    3  LEU33      -0.3025
     12 N          -1.1502   -0.2666   -0.2073 N.am    4  TRP44      -0.3022
     13 NE1        -5.4977   -1.0048   -0.0480 N.ar    4  TRP44      -0.3604
     14 CA          4.6127    0.9882    0.9728 C.3     1  PRO11       0.1023
     15 CB          5.2494    1.6111    2.2188 C.3     1  PRO11      -0.0243
     16 CG          4.0659    2.2126    2.9665 C.3     1  PRO11      -0.0350
     17 CD          3.1768    2.7130    1.8403 C.3     1  PRO11       0.0156
     18 C           4.2983   -0.5142    1.1594 C.2     1  PRO11       0.2342
     19 C           2.7943    1.8165   -0.4790 C.2     5  ASP55       0.2369
     20 CA          3.7196   -2.5905   -0.0830 C.3     2  VAL22       0.1017
     21 CA          1.6088    2.7945   -0.6893 C.3     5  ASP55       0.1047
     22 CB          4.6819   -3.4693   -0.9105 C.3     2  VAL22      -0.0197
     23 CA         -0.0846   -2.4774   -0.2564 C.3     3  LEU33       0.0996
     24 C           2.3231   -2.5545   -0.7269 C.2     2  VAL22       0.2342
     25 CB          1.6685    3.4387   -2.0636 C.3     5  ASP55       0.0138
     26 CA         -1.6148    0.9785    0.4183 C.3     4  TRP44       0.1034
     27 CB         -1.0346   -3.6323    0.0800 C.3     3  LEU33      -0.0236
     28 CG         -0.7159   -4.9555   -0.6466 C.3     3  LEU33      -0.0446
     29 C          -0.4976    2.0420    0.4375 C.2     4  TRP44       0.2343
     30 CB         -2.8327    1.5582   -0.3147 C.3     4  TRP44       0.0013
     31 C          -0.5025   -1.2274    0.5306 C.2     3  LEU33       0.2340
     32 CG1         4.1607   -4.9090   -1.0151 C.3     2  VAL22      -0.0605
     33 CG2         6.0820   -3.4911   -0.2886 C.3     2  VAL22      -0.0605
     34 CG         -4.0429    0.6593   -0.3740 C.ar    4  TRP44      -0.0201
     35 CG          2.8387    4.4092   -2.1638 C.2     5  ASP55       0.0440
     36 CD1        -1.6872   -6.0453   -0.1845 C.3     3  LEU33      -0.0626
     37 CD2        -0.7823   -4.8211   -2.1686 C.3     3  LEU33      -0.0626
     38 CD2        -5.2002    0.8799   -1.1927 C.ar    4  TRP44       0.0029
     39 CD1        -4.2821   -0.5058    0.3320 C.ar    4  TRP44       0.0060
     40 CE2        -6.0840   -0.1771   -0.9723 C.ar    4  TRP44       0.0467
     41 CE3        -5.5767    1.8899   -2.1024 C.ar    4  TRP44      -0.0523
     42 CZ2        -7.3203   -0.2808   -1.6211 C.ar    4  TRP44      -0.0378
     43 CZ3        -6.8129    1.8063   -2.7542 C.ar    4  TRP44      -0.0611
     44 CH2        -7.6694    0.7343   -2.5169 C.ar    4  TRP44      -0.0598
     45 H           3.9596   -0.6149   -0.8491 H       2  VAL22       0.1495
     46 H           0.4713    1.0670   -1.0930 H       5  ASP55       0.1495
     47 H           1.4843   -2.6125    1.1415 H       3  LEU33       0.1495
     48 H          -1.2339   -0.3620   -1.2124 H       4  TRP44       0.1495
     49 HE1        -5.9143   -1.8537    0.3082 H       4  TRP44       0.1653
     50 HA          5.2815    1.1002    0.1100 H       1  PRO11       0.0597
     51 HB1         5.9307    2.4168    1.9176 H       1  PRO11       0.0288
     52 HB2         5.8165    0.9040    2.8312 H       1  PRO11       0.0288
     53 HG1         4.3578    3.0085    3.6574 H       1  PRO11       0.0281
     54 HG2         3.5490    1.4331    3.5390 H       1  PRO11       0.0281
     55 HD1         2.1241    2.7498    2.1298 H       1  PRO11       0.0465
     56 HD2         3.4958    3.7026    1.4973 H       1  PRO11       0.0465
     57 HA          3.6420   -2.9962    0.9321 H       2  VAL22       0.0597
     58 HA          1.5684    3.5613    0.0872 H       5  ASP55       0.0598
     59 HB          4.7696   -3.0645   -1.9276 H       2  VAL22       0.0318
     60 HA         -0.1287   -2.2490   -1.3256 H       3  LEU33       0.0594
     61 HB1         0.7423    3.9946   -2.2579 H       5  ASP55       0.0348
     62 HB2         1.7678    2.6865   -2.8560 H       5  ASP55       0.0348
     63 HA         -1.8648    0.7640    1.4650 H       4  TRP44       0.0598
     64 HB1        -2.0637   -3.3272   -0.1543 H       3  LEU33       0.0290
     65 HB2        -1.0138   -3.8135    1.1636 H       3  LEU33       0.0290
     66 HG          0.2968   -5.2777   -0.3751 H       3  LEU33       0.0296
     67 HB1        -2.5455    1.8138   -1.3442 H       4  TRP44       0.0337
     68 HB2        -3.1325    2.4996    0.1647 H       4  TRP44       0.0337
     69 HG11        4.0174   -5.3514   -0.0225 H       2  VAL22       0.0233
     70 HG12        4.8665   -5.5398   -1.5670 H       2  VAL22       0.0233
     71 HG13        3.2043   -4.9528   -1.5456 H       2  VAL22       0.0233
     72 HG21        6.0523   -3.8645    0.7414 H       2  VAL22       0.0233
     73 HG22        6.5280   -2.4911   -0.2751 H       2  VAL22       0.0233
     74 HG23        6.7522   -4.1404   -0.8628 H       2  VAL22       0.0233
     75 HD11       -2.7218   -5.7897   -0.4392 H       3  LEU33       0.0232
     76 HD12       -1.6287   -6.1850    0.9000 H       3  LEU33       0.0232
     77 HD13       -1.4494   -7.0042   -0.6570 H       3  LEU33       0.0232
     78 HD21       -1.7514   -4.4249   -2.4907 H       3  LEU33       0.0232
     79 HD22       -0.6377   -5.7940   -2.6514 H       3  LEU33       0.0232
     80 HD23        0.0006   -4.1572   -2.5460 H       3  LEU33       0.0232
     81 HD1        -3.6867   -1.0285    1.0701 H       4  TRP44       0.0810
     82 HE3        -4.9168    2.7314   -2.2943 H       4  TRP44       0.0624
     83 HZ2        -7.9905   -1.1136   -1.4362 H       4  TRP44       0.0638
     84 HZ3        -7.1029    2.5883   -3.4506 H       4  TRP44       0.0618
     85 HH2        -8.6248    0.6868   -3.0335 H       4  TRP44       0.0618
@<TRIPOS>BOND
     1     1    18    2
     2     2    19    2
     3     3    24    2
     4     4    29    2
     5     5    31    2
     6     6    35   ar
     7     7    35   ar
     8     8    14    1
     9     8    17    1
    10     8    19   am
    11     9    18   am
    12     9    20    1
    13    10    21    1
    14    10    29   am
    15    11    23    1
    16    11    24   am
    17    12    26    1
    18    12    31   am
    19    13    39   ar
    20    13    40   ar
    21    14    15    1
    22    14    18    1
    23    15    16    1
    24    16    17    1
    25    19    21    1
    26    20    22    1
    27    20    24    1
    28    21    25    1
    29    22    32    1
    30    22    33    1
    31    23    27    1
    32    23    31    1
    33    25    35    1
    34    26    29    1
    35    26    30    1
    36    27    28    1
    37    28    36    1
    38    28    37    1
    39    30    34    1
    40    34    38   ar
    41    34    39   ar
    42    38    40   ar
    43    38    41   ar
    44    40    42   ar
    45    41    43   ar
    46    42    44   ar
    47    43    44   ar
    48     9    45    1
    49    10    46    1
    50    11    47    1
    51    12    48    1
    52    13    49    1
    53    14    50    1
    54    15    51    1
    55    15    52    1
    56    16    53    1
    57    16    54    1
    58    17    55    1
    59    17    56    1
    60    20    57    1
    61    21    58    1
    62    22    59    1
    63    23    60    1
    64    25    61    1
    65    25    62    1
    66    26    63    1
    67    27    64    1
    68    27    65    1
    69    28    66    1
    70    30    67    1
    71    30    68    1
    72    32    69    1
    73    32    70    1
    74    32    71    1
    75    33    72    1
    76    33    73    1
    77    33    74    1
    78    36    75    1
    79    36    76    1
    80    36    77    1
    81    37    78    1
    82    37    79    1
    83    37    80    1
    84    39    81    1
    85    41    82    1
    86    42    83    1
    87    43    84    1
    88    44    85    1
