@<TRIPOS>MOLECULE
*****
 67 70 0 0 0
SMALL
GASTEIGER

@<TRIPOS>ATOM
      1 C          -6.5789    0.2472   -0.8937 C.ar    1  LIG11       0.0483
      2 C          -6.5012    0.8979   -2.1034 C.ar    1  LIG11       0.0543
      3 C          -5.2321    1.2228   -2.5225 C.ar    1  LIG11       0.0483
      4 N          -4.1186    0.9479   -1.8096 N.ar    1  LIG11      -0.2022
      5 N          -5.5011   -0.0546   -0.1390 N.ar    1  LIG11      -0.2022
      6 C           2.3121    4.7130   -2.5164 C.ar    1  LIG11      -0.0504
      7 C           3.2246    4.9000   -1.4802 C.ar    1  LIG11      -0.0583
      8 C           3.1741    4.1030   -0.3263 C.ar    1  LIG11      -0.0535
      9 C           2.2329    3.0678   -0.1652 C.ar    1  LIG11      -0.0094
     10 C           1.3528    2.8770   -1.2499 C.ar    1  LIG11      -0.0535
     11 C           1.3662    3.6987   -2.3870 C.ar    1  LIG11      -0.0583
     12 C           2.9900   -1.2925   -1.2003 C.ar    1  LIG11      -0.0561
     13 C           3.8105   -0.2153   -0.8524 C.ar    1  LIG11      -0.0348
     14 C           4.4166   -0.1841    0.4014 C.ar    1  LIG11       0.1086
     15 C           4.2452   -1.2418    1.2936 C.ar    1  LIG11      -0.0348
     16 C           3.4188   -2.3112    0.9393 C.ar    1  LIG11      -0.0561
     17 C           1.8700   -3.5636   -0.6695 C.3     1  LIG11       0.0132
     18 C           2.7713   -2.3620   -0.3128 C.ar    1  LIG11      -0.0394
     19 C           1.3019   -3.5041   -2.1075 C.3     1  LIG11      -0.0537
     20 C           0.6816   -3.6658    0.3280 C.3     1  LIG11       0.0533
     21 C           2.7018   -4.8651   -0.5748 C.3     1  LIG11      -0.0537
     22 O          -0.2023   -2.5507    0.2410 O.3     1  LIG11      -0.3942
     23 S           5.4833    1.1676    0.8271 S.O2    1  LIG11       0.0735
     24 O           6.4598    0.6711    1.7732 O.2     1  LIG11      -0.1499
     25 O           5.9217    1.7975   -0.4047 O.2     1  LIG11      -0.1499
     26 N           4.5691    2.3086    1.6809 N.pl3   1  LIG11      -0.1988
     27 C           2.1449    2.2626    1.0944 C.ar    1  LIG11       0.0847
     28 C           0.9593    1.7291    1.6085 C.ar    1  LIG11       0.2276
     29 N           0.8367    1.0742    2.7853 N.ar    1  LIG11      -0.2008
     30 C           1.9513    0.9054    3.4876 C.ar    1  LIG11       0.1219
     31 N           3.1581    1.3307    3.1236 N.ar    1  LIG11      -0.2186
     32 C           3.2149    1.9828    1.9462 C.ar    1  LIG11       0.1524
     33 C           2.3066    5.6268   -3.7049 C.3     1  LIG11      -0.0397
     34 O          -0.2170    1.9461    0.9237 O.3     1  LIG11      -0.4724
     35 C          -1.1979    0.9240    1.1324 C.3     1  LIG11       0.1252
     36 C          -2.1611    0.9639   -0.0493 C.3     1  LIG11       0.1267
     37 O          -3.2341    0.0542    0.1781 O.3     1  LIG11      -0.4590
     38 C          -4.3141    0.3312   -0.6289 C.ar    1  LIG11       0.3180
     39 BR         -8.0258    1.3217   -3.1118 Br      1  LIG11      -0.0472
     40 H          -7.5314   -0.0583   -0.4706 H       1  LIG11       0.0843
     41 H          -5.0571    1.7337   -3.4649 H       1  LIG11       0.0843
     42 H           3.9809    5.6795   -1.5497 H       1  LIG11       0.0620
     43 H           3.8954    4.3334    0.4544 H       1  LIG11       0.0624
     44 H           0.6085    2.0851   -1.2351 H       1  LIG11       0.0624
     45 H           0.6239    3.5373   -3.1658 H       1  LIG11       0.0620
     46 H           2.5335   -1.2683   -2.1856 H       1  LIG11       0.0621
     47 H           3.9655    0.5928   -1.5658 H       1  LIG11       0.0637
     48 H           4.7366   -1.2373    2.2639 H       1  LIG11       0.0637
     49 H           3.2889   -3.1131    1.6643 H       1  LIG11       0.0621
     50 H           2.1041   -3.5127   -2.8550 H       1  LIG11       0.0239
     51 H           0.6605   -4.3698   -2.3115 H       1  LIG11       0.0239
     52 H           0.6962   -2.6074   -2.2775 H       1  LIG11       0.0239
     53 H           0.0924   -4.5719    0.1411 H       1  LIG11       0.0566
     54 H           1.0286   -3.7257    1.3649 H       1  LIG11       0.0566
     55 H           3.0530   -5.0611    0.4441 H       1  LIG11       0.0239
     56 H           2.1089   -5.7355   -0.8801 H       1  LIG11       0.0239
     57 H           3.5840   -4.8194   -1.2246 H       1  LIG11       0.0239
     58 H          -0.7523   -2.6680   -0.5518 H       1  LIG11       0.2094
     59 H           5.0280    2.3723    2.5916 H       1  LIG11       0.1753
     60 H           1.8702    0.3776    4.4310 H       1  LIG11       0.1049
     61 H           3.3279    5.8983   -3.9919 H       1  LIG11       0.0278
     62 H           1.8410    5.1464   -4.5718 H       1  LIG11       0.0278
     63 H           1.7493    6.5398   -3.4716 H       1  LIG11       0.0278
     64 H          -0.7493   -0.0754    1.1907 H       1  LIG11       0.0731
     65 H          -1.7416    1.1162    2.0654 H       1  LIG11       0.0731
     66 H          -2.5196    1.9958   -0.1672 H       1  LIG11       0.0732
     67 H          -1.6221    0.6824   -0.9635 H       1  LIG11       0.0732
@<TRIPOS>BOND
     1     1     2   ar
     2     2     3   ar
     3     2    39    1
     4     3     4   ar
     5     4    38   ar
     6     5     1   ar
     7     6     7   ar
     8     6    33    1
     9     7     8   ar
    10     8     9   ar
    11     9    10   ar
    12    10    11   ar
    13    11     6   ar
    14    12    13   ar
    15    13    14   ar
    16    14    15   ar
    17    15    16   ar
    18    16    18   ar
    19    17    18    1
    20    17    21    1
    21    17    20    1
    22    17    19    1
    23    18    12   ar
    24    20    22    1
    25    23    26    1
    26    23    25    2
    27    23    24    2
    28    23    14    1
    29    26    32    1
    30    27    28   ar
    31    27     9    1
    32    28    29   ar
    33    29    30   ar
    34    30    31   ar
    35    31    32   ar
    36    32    27   ar
    37    34    35    1
    38    34    28    1
    39    35    36    1
    40    36    37    1
    41    37    38    1
    42    38     5   ar
    43     1    40    1
    44     3    41    1
    45     7    42    1
    46     8    43    1
    47    10    44    1
    48    11    45    1
    49    12    46    1
    50    13    47    1
    51    15    48    1
    52    16    49    1
    53    19    50    1
    54    19    51    1
    55    19    52    1
    56    20    53    1
    57    20    54    1
    58    21    55    1
    59    21    56    1
    60    21    57    1
    61    22    58    1
    62    26    59    1
    63    30    60    1
    64    33    61    1
    65    33    62    1
    66    33    63    1
    67    35    64    1
    68    35    65    1
    69    36    66    1
    70    36    67    1
@<TRIPOS>MOLECULE
16219006
 85 88 0 0 0
SMALL
GASTEIGER

@<TRIPOS>ATOM
      1 O           4.1595   -1.0570    2.2536 O.2     1  PRO11      -0.2738
      2 O           3.0771    0.9638   -1.3327 O.2     5  ASP55      -0.2735
      3 O           2.1429   -2.3169   -1.9198 O.2     2  VAL22      -0.2738
      4 O          -0.5282    2.9852    1.2259 O.2     4  TRP44      -0.2738
      5 O          -0.2891   -1.1205    1.7371 O.2     3  LEU33      -0.2738
      6 OD1         2.9204    5.0081   -3.2737 O.co2   5  ASP55      -0.5497
      7 OD2         3.5746    4.5180   -1.1454 O.co2   5  ASP55      -0.5497
      8 N           3.3879    1.7587    0.7665 N.am    1  PRO11      -0.2884
      9 N           4.1635   -1.2019   -0.0309 N.am    2  VAL22      -0.3022
     10 N           0.4065    1.9470   -0.5975 N.am    5  ASP55      -0.3021
     11 N           1.2829   -2.7598    0.1537 N.am    3  LEU33      -0.3025
     12 N          -1.1502   -0.2666   -0.2073 N.am    4  TRP44      -0.3022
     13 NE1        -5.4977   -1.0048   -0.0480 N.ar    4  TRP44      -0.3604
     14 CA          4.6127    0.9882    0.9728 C.3     1  PRO11       0.1023
     15 CB          5.2494    1.6111    2.2188 C.3     1  PRO11      -0.0243
     16 CG          4.0659    2.2126    2.9665 C.3     1  PRO11      -0.0350
     17 CD          3.1768    2.7130    1.8403 C.3     1  PRO11       0.0156
     18 C           4.2983   -0.5142    1.1594 C.2     1  PRO11       0.2342
     19 C           2.7943    1.8165   -0.4790 C.2     5  ASP55       0.2369
     20 CA          3.7196   -2.5905   -0.0830 C.3     2  VAL22       0.1017
     21 CA          1.6088    2.7945   -0.6893 C.3     5  ASP55       0.1047
     22 CB          4.6819   -3.4693   -0.9105 C.3     2  VAL22      -0.0197
     23 CA         -0.0846   -2.4774   -0.2564 C.3     3  LEU33       0.0996
     24 C           2.3231   -2.5545   -0.7269 C.2     2  VAL22       0.2342
     25 CB          1.6685    3.4387   -2.0636 C.3     5  ASP55       0.0138
     26 CA         -1.6148    0.9785    0.4183 C.3     4  TRP44       0.1034
     27 CB         -1.0346   -3.6323    0.0800 C.3     3  LEU33      -0.0236
     28 CG         -0.7159   -4.9555   -0.6466 C.3     3  LEU33      -0.0446
     29 C          -0.4976    2.0420    0.4375 C.2     4  TRP44       0.2343
     30 CB         -2.8327    1.5582   -0.3147 C.3     4  TRP44       0.0013
     31 C          -0.5025   -1.2274    0.5306 C.2     3  LEU33       0.2340
     32 CG1         4.1607   -4.9090   -1.0151 C.3     2  VAL22      -0.0605
     33 CG2         6.0820   -3.4911   -0.2886 C.3     2  VAL22      -0.0605
     34 CG         -4.0429    0.6593   -0.3740 C.ar    4  TRP44      -0.0201
     35 CG          2.8387    4.4092   -2.1638 C.2     5  ASP55       0.0440
     36 CD1        -1.6872   -6.0453   -0.1845 C.3     3  LEU33      -0.0626
     37 CD2        -0.7823   -4.8211   -2.1686 C.3     3  LEU33      -0.0626
     38 CD2        -5.2002    0.8799   -1.1927 C.ar    4  TRP44       0.0029
     39 CD1        -4.2821   -0.5058    0.3320 C.ar    4  TRP44       0.0060
     40 CE2        -6.0840   -0.1771   -0.9723 C.ar    4  TRP44       0.0467
     41 CE3        -5.5767    1.8899   -2.1024 C.ar    4  TRP44      -0.0523
     42 CZ2        -7.3203   -0.2808   -1.6211 C.ar    4  TRP44      -0.0378
     43 CZ3        -6.8129    1.8063   -2.7542 C.ar    4  TRP44      -0.0611
     44 CH2        -7.6694    0.7343   -2.5169 C.ar    4  TRP44      -0.0598
     45 H           3.9596   -0.6149   -0.8491 H       2  VAL22       0.1495
     46 H           0.4713    1.0670   -1.0930 H       5  ASP55       0.1495
     47 H           1.4843   -2.6125    1.1415 H       3  LEU33       0.1495
     48 H          -1.2339   -0.3620   -1.2124 H       4  TRP44       0.1495
     49 HE1        -5.9143   -1.8537    0.3082 H       4  TRP44       0.1653
     50 HA          5.2815    1.1002    0.1100 H       1  PRO11       0.0597
     51 HB1         5.9307    2.4168    1.9176 H       1  PRO11       0.0288
     52 HB2         5.8165    0.9040    2.8312 H       1  PRO11       0.0288
     53 HG1         4.3578    3.0085    3.6574 H       1  PRO11       0.0281
     54 HG2         3.5490    1.4331    3.5390 H       1  PRO11       0.0281
     55 HD1         2.1241    2.7498    2.1298 H       1  PRO11       0.0465
     56 HD2         3.4958    3.7026    1.4973 H       1  PRO11       0.0465
     57 HA          3.6420   -2.9962    0.9321 H       2  VAL22       0.0597
     58 HA          1.5684    3.5613    0.0872 H       5  ASP55       0.0598
     59 HB          4.7696   -3.0645   -1.9276 H       2  VAL22       0.0318
     60 HA         -0.1287   -2.2490   -1.3256 H       3  LEU33       0.0594
     61 HB1         0.7423    3.9946   -2.2579 H       5  ASP55       0.0348
     62 HB2         1.7678    2.6865   -2.8560 H       5  ASP55       0.0348
     63 HA         -1.8648    0.7640    1.4650 H       4  TRP44       0.0598
     64 HB1        -2.0637   -3.3272   -0.1543 H       3  LEU33       0.0290
     65 HB2        -1.0138   -3.8135    1.1636 H       3  LEU33       0.0290
     66 HG          0.2968   -5.2777   -0.3751 H       3  LEU33       0.0296
     67 HB1        -2.5455    1.8138   -1.3442 H       4  TRP44       0.0337
     68 HB2        -3.1325    2.4996    0.1647 H       4  TRP44       0.0337
     69 HG11        4.0174   -5.3514   -0.0225 H       2  VAL22       0.0233
     70 HG12        4.8665   -5.5398   -1.5670 H       2  VAL22       0.0233
     71 HG13        3.2043   -4.9528   -1.5456 H       2  VAL22       0.0233
     72 HG21        6.0523   -3.8645    0.7414 H       2  VAL22       0.0233
     73 HG22        6.5280   -2.4911   -0.2751 H       2  VAL22       0.0233
     74 HG23        6.7522   -4.1404   -0.8628 H       2  VAL22       0.0233
     75 HD11       -2.7218   -5.7897   -0.4392 H       3  LEU33       0.0232
     76 HD12       -1.6287   -6.1850    0.9000 H       3  LEU33       0.0232
     77 HD13       -1.4494   -7.0042   -0.6570 H       3  LEU33       0.0232
     78 HD21       -1.7514   -4.4249   -2.4907 H       3  LEU33       0.0232
     79 HD22       -0.6377   -5.7940   -2.6514 H       3  LEU33       0.0232
     80 HD23        0.0006   -4.1572   -2.5460 H       3  LEU33       0.0232
     81 HD1        -3.6867   -1.0285    1.0701 H       4  TRP44       0.0810
     82 HE3        -4.9168    2.7314   -2.2943 H       4  TRP44       0.0624
     83 HZ2        -7.9905   -1.1136   -1.4362 H       4  TRP44       0.0638
     84 HZ3        -7.1029    2.5883   -3.4506 H       4  TRP44       0.0618
     85 HH2        -8.6248    0.6868   -3.0335 H       4  TRP44       0.0618
@<TRIPOS>BOND
     1     1    18    2
     2     2    19    2
     3     3    24    2
     4     4    29    2
     5     5    31    2
     6     6    35   ar
     7     7    35   ar
     8     8    14    1
     9     8    17    1
    10     8    19   am
    11     9    18   am
    12     9    20    1
    13    10    21    1
    14    10    29   am
    15    11    23    1
    16    11    24   am
    17    12    26    1
    18    12    31   am
    19    13    39   ar
    20    13    40   ar
    21    14    15    1
    22    14    18    1
    23    15    16    1
    24    16    17    1
    25    19    21    1
    26    20    22    1
    27    20    24    1
    28    21    25    1
    29    22    32    1
    30    22    33    1
    31    23    27    1
    32    23    31    1
    33    25    35    1
    34    26    29    1
    35    26    30    1
    36    27    28    1
    37    28    36    1
    38    28    37    1
    39    30    34    1
    40    34    38   ar
    41    34    39   ar
    42    38    40   ar
    43    38    41   ar
    44    40    42   ar
    45    41    43   ar
    46    42    44   ar
    47    43    44   ar
    48     9    45    1
    49    10    46    1
    50    11    47    1
    51    12    48    1
    52    13    49    1
    53    14    50    1
    54    15    51    1
    55    15    52    1
    56    16    53    1
    57    16    54    1
    58    17    55    1
    59    17    56    1
    60    20    57    1
    61    21    58    1
    62    22    59    1
    63    23    60    1
    64    25    61    1
    65    25    62    1
    66    26    63    1
    67    27    64    1
    68    27    65    1
    69    28    66    1
    70    30    67    1
    71    30    68    1
    72    32    69    1
    73    32    70    1
    74    32    71    1
    75    33    72    1
    76    33    73    1
    77    33    74    1
    78    36    75    1
    79    36    76    1
    80    36    77    1
    81    37    78    1
    82    37    79    1
    83    37    80    1
    84    39    81    1
    85    41    82    1
    86    42    83    1
    87    43    84    1
    88    44    85    1
