@<TRIPOS>MOLECULE
9910224
 46 49 0 0 0
SMALL
GASTEIGER

@<TRIPOS>ATOM
      1 S           1.0711    0.6724    0.3355 S.O2    1  LIG11       0.0756
      2 O           2.3244    0.1176    0.8057 O.2     1  LIG11      -0.1499
      3 O          -0.0288    0.8586    1.2543 O.2     1  LIG11      -0.1499
      4 O           2.4179   -2.3776   -0.9355 O.3     1  LIG11      -0.4773
      5 O          -5.7111    2.1016    0.9100 O.2     1  LIG11      -0.4229
      6 N           0.6167   -0.2507   -1.0145 N.pl3   1  LIG11      -0.1951
      7 N           0.8904    4.3382   -1.3993 N.ar    1  LIG11      -0.2530
      8 N          -1.1156   -1.7083   -0.4065 N.ar    1  LIG11      -0.2325
      9 N           0.7189   -3.8941   -0.2954 N.ar    1  LIG11      -0.2137
     10 N          -5.8685    4.3324    0.9767 N.ar    1  LIG11      -0.1076
     11 N          -7.0685    3.8062    1.4129 N.ar    1  LIG11      -0.1156
     12 C           1.4496    2.2021   -0.4732 C.ar    1  LIG11       0.1344
     13 C           0.5052    3.1837   -0.7696 C.ar    1  LIG11       0.0975
     14 C          -0.9417    3.1851   -0.4586 C.ar    1  LIG11       0.0023
     15 C           2.7980    2.4225   -0.8136 C.ar    1  LIG11      -0.0315
     16 C          -1.8019    2.1157   -0.7443 C.ar    1  LIG11      -0.0518
     17 C          -1.5230    4.3311    0.1188 C.ar    1  LIG11      -0.0518
     18 C           0.1980   -1.5657   -0.6580 C.ar    1  LIG11       0.2006
     19 C          -3.7043    3.2702    0.2500 C.ar    1  LIG11       0.0385
     20 C          -3.1530    2.1431   -0.3687 C.ar    1  LIG11      -0.0488
     21 C          -2.8804    4.3797    0.4578 C.ar    1  LIG11      -0.0488
     22 C           3.1740    3.5975   -1.4505 C.ar    1  LIG11      -0.0417
     23 C           2.1891    4.5193   -1.7228 C.ar    1  LIG11       0.0284
     24 C           1.1056   -2.6301   -0.5799 C.ar    1  LIG11       0.2574
     25 C          -5.0916    3.3067    0.6856 C.ar    1  LIG11       0.2480
     26 C          -0.6081   -4.0526   -0.0577 C.ar    1  LIG11       0.0602
     27 C          -1.4953   -2.9743   -0.1039 C.ar    1  LIG11       0.0510
     28 C          -1.1055   -5.4360    0.2239 C.3     1  LIG11      -0.0208
     29 C           3.3162   -3.3026   -0.3313 C.3     1  LIG11       0.0805
     30 C          -6.9261    2.5036    1.3711 C.ar    1  LIG11       0.2047
     31 H           1.4539   -0.3486   -1.5967 H       1  LIG11       0.1754
     32 H           3.5640    1.6858   -0.5810 H       1  LIG11       0.0638
     33 H          -1.4413    1.2224   -1.2453 H       1  LIG11       0.0624
     34 H          -0.9067    5.2085    0.3137 H       1  LIG11       0.0624
     35 H          -3.7626    1.2632   -0.5642 H       1  LIG11       0.0625
     36 H          -3.2805    5.2863    0.9088 H       1  LIG11       0.0625
     37 H           4.2073    3.7870   -1.7195 H       1  LIG11       0.0633
     38 H           2.4169    5.4594   -2.2176 H       1  LIG11       0.0830
     39 H          -2.5552   -3.1056    0.0921 H       1  LIG11       0.0848
     40 H          -0.2794   -6.1547    0.2164 H       1  LIG11       0.0293
     41 H          -1.5860   -5.4769    1.2057 H       1  LIG11       0.0293
     42 H          -1.8249   -5.7408   -0.5429 H       1  LIG11       0.0293
     43 H           4.3338   -2.9478   -0.5211 H       1  LIG11       0.0660
     44 H           3.1755   -3.3453    0.7548 H       1  LIG11       0.0660
     45 H           3.2196   -4.2969   -0.7796 H       1  LIG11       0.0660
     46 H          -7.6295    1.7354    1.6530 H       1  LIG11       0.1272
@<TRIPOS>BOND
     1     1     2    2
     2     1     3    2
     3     1     6    1
     4     1    12    1
     5     4    24    1
     6     4    29    1
     7     5    25   ar
     8     5    30   ar
     9     6    18    1
    10     7    13   ar
    11     7    23   ar
    12     8    18   ar
    13     8    27   ar
    14     9    24   ar
    15     9    26   ar
    16    10    11   ar
    17    10    25   ar
    18    11    30   ar
    19    12    13   ar
    20    12    15   ar
    21    13    14    1
    22    14    16   ar
    23    14    17   ar
    24    15    22   ar
    25    16    20   ar
    26    17    21   ar
    27    18    24   ar
    28    19    20   ar
    29    19    21   ar
    30    19    25    1
    31    22    23   ar
    32    26    27   ar
    33    26    28    1
    34     6    31    1
    35    15    32    1
    36    16    33    1
    37    17    34    1
    38    20    35    1
    39    21    36    1
    40    22    37    1
    41    23    38    1
    42    27    39    1
    43    28    40    1
    44    28    41    1
    45    28    42    1
    46    29    43    1
    47    29    44    1
    48    29    45    1
    49    30    46    1
@<TRIPOS>MOLECULE
16219006
 85 88 0 0 0
SMALL
GASTEIGER

@<TRIPOS>ATOM
      1 O           4.1806   -1.1068    2.2670 O.2     1  PRO11      -0.2738
      2 O           2.9994    0.8823   -1.2951 O.2     5  ASP55      -0.2735
      3 O           2.0345   -2.4616   -1.8887 O.2     2  VAL22      -0.2738
      4 O          -0.2209    2.6901    1.4861 O.2     4  TRP44      -0.2738
      5 O          -0.6100   -1.1185    1.7916 O.2     3  LEU33      -0.2738
      6 OD1         3.8422    4.3086   -1.2250 O.co2   5  ASP55      -0.5497
      7 OD2         2.5173    5.6527   -2.5046 O.co2   5  ASP55      -0.5497
      8 N           3.4398    1.7192    0.7702 N.am    1  PRO11      -0.2884
      9 N           4.0849   -1.2671   -0.0143 N.am    2  VAL22      -0.3022
     10 N           0.4221    2.0055   -0.6073 N.am    5  ASP55      -0.3021
     11 N           1.1796   -2.6534    0.2237 N.am    3  LEU33      -0.3025
     12 N          -1.2606   -0.2219   -0.2216 N.am    4  TRP44      -0.3022
     13 NE1        -3.5387    5.1297    0.6421 N.ar    4  TRP44      -0.3604
     14 CA          4.6445    0.9115    0.9459 C.3     1  PRO11       0.1023
     15 CB          5.3494    1.5297    2.1570 C.3     1  PRO11      -0.0243
     16 CG          4.2203    2.1976    2.9309 C.3     1  PRO11      -0.0350
     17 CD          3.3148    2.7103    1.8250 C.3     1  PRO11       0.0156
     18 C           4.2896   -0.5771    1.1631 C.2     1  PRO11       0.2342
     19 C           2.7961    1.7683   -0.4501 C.2     5  ASP55       0.2369
     20 CA          3.6207   -2.6483   -0.0477 C.3     2  VAL22       0.1017
     21 CA          1.6601    2.8029   -0.6478 C.3     5  ASP55       0.1047
     22 CB          4.5716   -3.5423   -0.8744 C.3     2  VAL22      -0.0197
     23 CA         -0.1967   -2.4362   -0.2008 C.3     3  LEU33       0.0996
     24 C           2.2174   -2.5980   -0.6806 C.2     2  VAL22       0.2342
     25 CB          1.7611    3.4892   -2.0008 C.3     5  ASP55       0.0138
     26 CA         -1.6475    1.0765    0.3578 C.3     4  TRP44       0.1034
     27 CB         -1.0893   -3.6424    0.1154 C.3     3  LEU33      -0.0236
     28 CG         -0.7147   -4.9386   -0.6335 C.3     3  LEU33      -0.0446
     29 C          -0.3906    1.9644    0.5083 C.2     4  TRP44       0.2343
     30 CB         -2.6883    1.7525   -0.5509 C.3     4  TRP44       0.0013
     31 C          -0.7048   -1.2053    0.5695 C.2     3  LEU33       0.2340
     32 CG1         4.0428   -4.9800   -0.9623 C.3     2  VAL22      -0.0605
     33 CG2         5.9785   -3.5679   -0.2652 C.3     2  VAL22      -0.0605
     34 CG         -3.2938    3.0047    0.0049 C.ar    4  TRP44      -0.0201
     35 CG          2.8116    4.5847   -1.8982 C.2     5  ASP55       0.0440
     36 CD1        -1.6384   -6.0758   -0.1869 C.3     3  LEU33      -0.0626
     37 CD2        -0.7932   -4.7876   -2.1539 C.3     3  LEU33      -0.0626
     38 CD2        -4.6142    3.1803    0.5351 C.ar    4  TRP44       0.0029
     39 CD1        -2.6781    4.2403    0.0638 C.ar    4  TRP44       0.0060
     40 CE2        -4.7381    4.5178    0.9173 C.ar    4  TRP44       0.0467
     41 CE3        -5.7236    2.3284    0.7206 C.ar    4  TRP44      -0.0523
     42 CZ2        -5.9100    5.0453    1.4726 C.ar    4  TRP44      -0.0378
     43 CZ3        -6.9062    2.8414    1.2672 C.ar    4  TRP44      -0.0611
     44 CH2        -6.9958    4.1809    1.6369 C.ar    4  TRP44      -0.0598
     45 H           3.8725   -0.6799   -0.8299 H       2  VAL22       0.1495
     46 H           0.4043    1.2290   -1.2520 H       5  ASP55       0.1495
     47 H           1.3905   -2.4645    1.2021 H       3  LEU33       0.1495
     48 H          -1.1023   -0.2672   -1.2208 H       4  TRP44       0.1495
     49 HE1        -3.3246    6.0995    0.8291 H       4  TRP44       0.1653
     50 HA          5.2840    0.9904    0.0579 H       1  PRO11       0.0597
     51 HB1         6.0543    2.2986    1.8167 H       1  PRO11       0.0288
     52 HB2         5.9056    0.8110    2.7656 H       1  PRO11       0.0288
     53 HG1         4.5692    2.9958    3.5922 H       1  PRO11       0.0281
     54 HG2         3.6911    1.4540    3.5386 H       1  PRO11       0.0281
     55 HD1         2.2793    2.8055    2.1562 H       1  PRO11       0.0465
     56 HD2         3.6649    3.6748    1.4426 H       1  PRO11       0.0465
     57 HA          3.5438   -3.0441    0.9717 H       2  VAL22       0.0597
     58 HA          1.6325    3.5446    0.1529 H       5  ASP55       0.0598
     59 HB          4.6547   -3.1474   -1.8954 H       2  VAL22       0.0318
     60 HA         -0.2320   -2.2160   -1.2717 H       3  LEU33       0.0594
     61 HB1         0.7967    3.9335   -2.2768 H       5  ASP55       0.0348
     62 HB2         2.0457    2.7980   -2.8022 H       5  ASP55       0.0348
     63 HA         -2.0561    0.8994    1.3601 H       4  TRP44       0.0598
     64 HB1        -2.1316   -3.3818   -0.1128 H       3  LEU33       0.0290
     65 HB2        -1.0578   -3.8406    1.1956 H       3  LEU33       0.0290
     66 HG          0.3118   -5.2214   -0.3688 H       3  LEU33       0.0296
     67 HB1        -3.4902    1.0336   -0.7630 H       4  TRP44       0.0337
     68 HB2        -2.2424    1.9864   -1.5270 H       4  TRP44       0.0337
     69 HG11        3.9083   -5.4143    0.0345 H       2  VAL22       0.0233
     70 HG12        4.7395   -5.6177   -1.5174 H       2  VAL22       0.0233
     71 HG13        3.0805   -5.0232   -1.4824 H       2  VAL22       0.0233
     72 HG21        5.9563   -3.9319    0.7681 H       2  VAL22       0.0233
     73 HG22        6.4319   -2.5716   -0.2654 H       2  VAL22       0.0233
     74 HG23        6.6386   -4.2270   -0.8399 H       2  VAL22       0.0233
     75 HD11       -2.6826   -5.8602   -0.4379 H       3  LEU33       0.0232
     76 HD12       -1.5733   -6.2294    0.8951 H       3  LEU33       0.0232
     77 HD13       -1.3611   -7.0167   -0.6742 H       3  LEU33       0.0232
     78 HD21       -1.7787   -4.4278   -2.4669 H       3  LEU33       0.0232
     79 HD22       -0.6102   -5.7472   -2.6494 H       3  LEU33       0.0232
     80 HD23       -0.0410   -4.0879   -2.5270 H       3  LEU33       0.0232
     81 HD1        -1.6842    4.5563   -0.2327 H       4  TRP44       0.0810
     82 HE3        -5.6669    1.2822    0.4374 H       4  TRP44       0.0624
     83 HZ2        -5.9779    6.0886    1.7626 H       4  TRP44       0.0638
     84 HZ3        -7.7616    2.1856    1.4041 H       4  TRP44       0.0618
     85 HH2        -7.9215    4.5625    2.0606 H       4  TRP44       0.0618
@<TRIPOS>BOND
     1     1    18    2
     2     2    19    2
     3     3    24    2
     4     4    29    2
     5     5    31    2
     6     6    35   ar
     7     7    35   ar
     8     8    14    1
     9     8    17    1
    10     8    19   am
    11     9    18   am
    12     9    20    1
    13    10    21    1
    14    10    29   am
    15    11    23    1
    16    11    24   am
    17    12    26    1
    18    12    31   am
    19    13    39   ar
    20    13    40   ar
    21    14    15    1
    22    14    18    1
    23    15    16    1
    24    16    17    1
    25    19    21    1
    26    20    22    1
    27    20    24    1
    28    21    25    1
    29    22    32    1
    30    22    33    1
    31    23    27    1
    32    23    31    1
    33    25    35    1
    34    26    29    1
    35    26    30    1
    36    27    28    1
    37    28    36    1
    38    28    37    1
    39    30    34    1
    40    34    38   ar
    41    34    39   ar
    42    38    40   ar
    43    38    41   ar
    44    40    42   ar
    45    41    43   ar
    46    42    44   ar
    47    43    44   ar
    48     9    45    1
    49    10    46    1
    50    11    47    1
    51    12    48    1
    52    13    49    1
    53    14    50    1
    54    15    51    1
    55    15    52    1
    56    16    53    1
    57    16    54    1
    58    17    55    1
    59    17    56    1
    60    20    57    1
    61    21    58    1
    62    22    59    1
    63    23    60    1
    64    25    61    1
    65    25    62    1
    66    26    63    1
    67    27    64    1
    68    27    65    1
    69    28    66    1
    70    30    67    1
    71    30    68    1
    72    32    69    1
    73    32    70    1
    74    32    71    1
    75    33    72    1
    76    33    73    1
    77    33    74    1
    78    36    75    1
    79    36    76    1
    80    36    77    1
    81    37    78    1
    82    37    79    1
    83    37    80    1
    84    39    81    1
    85    41    82    1
    86    42    83    1
    87    43    84    1
    88    44    85    1
