@<TRIPOS>MOLECULE
../1EDN/3STEPMIN_17-21_NOBACKBONE.pdb
 26 23 0 0 0
SMALL
GASTEIGER

@<TRIPOS>ATOM
      1  CB        -6.9230   -0.4370    0.2770 C.3    17  LEU17       0.0000
      2  CG        -6.4950   -1.8450   -0.1910 C.3    17  LEU17       0.0000
      3  CD1       -6.5150   -2.8060    0.9980 C.3    17  LEU17       0.0000
      4  CD2       -7.4310   -2.4140   -1.2600 C.3    17  LEU17       0.0000
      5  CB        -9.0510    3.1310    2.7840 C.3    18  ASP18       0.1258
      6  CG       -10.5470    3.4340    2.8500 C.2    18  ASP18       0.3654
      7  OD1      -11.3300    2.4930    2.5610 O.co2  18  ASP18      -0.2456
      8  OD2      -10.9050    4.5930    3.1470 O.co2  18  ASP18      -0.2456
      9  CB        -4.3960    5.7260    0.0740 C.3    19  ILE19       0.0000
     10  CG2       -3.6150    6.9530   -0.4300 C.3    19  ILE19       0.0000
     11  CG1       -3.7730    5.2100    1.3920 C.3    19  ILE19       0.0000
     12  CD1       -3.8620    6.1700    2.5820 C.3    19  ILE19       0.0000
     13  CB        -6.0900    6.2460   -4.5940 C.3    20  ILE20       0.0000
     14  CG2       -6.7980    6.2490   -5.9680 C.3    20  ILE20       0.0000
     15  CG1       -5.7140    7.6970   -4.2070 C.3    20  ILE20       0.0000
     16  CD1       -4.7810    8.4150   -5.1910 C.3    20  ILE20       0.0000
     17  CB        -9.7020    1.6830   -3.5450 C.3    21  TRP21       0.0327
     18  CG       -10.4970    2.2370   -2.3850 C.ar   21  TRP21      -0.0013
     19  CD1      -10.6860    1.5470   -1.2340 C.ar   21  TRP21       0.0946
     20  NE1      -11.3350    2.3340   -0.3040 N.ar   21  TRP21      -0.2442
     21  CE2      -11.5720    3.5950   -0.7990 C.ar   21  TRP21       0.0810
     22  CZ2      -12.0950    4.7480   -0.2000 C.ar   21  TRP21       0.0191
     23  CH2      -12.2340    5.9130   -0.9670 C.ar   21  TRP21       0.0015
     24  CZ3      -11.8800    5.8920   -2.3260 C.ar   21  TRP21       0.0001
     25  CE3      -11.3480    4.7280   -2.9100 C.ar   21  TRP21       0.0012
     26  CD2      -11.1270    3.5500   -2.1550 C.ar   21  TRP21       0.0152
@<TRIPOS>BOND
     1    14    13    1
     2    16    15    1
     3    13    15    1
     4    17    18    1
     5    25    24   ar
     6    25    26   ar
     7    18    26   ar
     8    18    19   ar
     9    24    23   ar
    10    26    21   ar
    11     4     2    1
    12    19    20   ar
    13    23    22   ar
    14    21    20   ar
    15    21    22   ar
    16    10     9    1
    17     2     1    1
    18     2     3    1
    19     9    11    1
    20    11    12    1
    21     7     6   ar
    22     5     6    1
    23     6     8   ar
@<TRIPOS>MOLECULE
177236
 51 53 0 0 0
SMALL
GASTEIGER

@<TRIPOS>ATOM
      1 O         -12.3953    2.7526   -1.7886 O.3     1  LIG11      -0.3632
      2 O          -9.1498    4.6689   -2.2509 O.3     1  LIG11      -0.4494
      3 O          -8.5416    2.0611   -1.7155 O.co2   1  LIG11      -0.5459
      4 O          -9.9424    1.4510   -3.3986 O.co2   1  LIG11      -0.5459
      5 O          -8.0708    4.2261   -6.7967 O.3     1  LIG11      -0.4794
      6 O          -5.5796    7.0146   -3.8696 O.3     1  LIG11      -0.4794
      7 N          -8.6295    4.4104   -4.5233 N.ar    1  LIG11      -0.1594
      8 N          -7.3406    5.7986   -3.0989 N.ar    1  LIG11      -0.1594
      9 C         -11.3570    3.7438   -1.4928 C.3     1  LIG11       0.1609
     10 C         -10.1647    3.6543   -2.5067 C.3     1  LIG11       0.1791
     11 C         -10.9001    3.4821   -0.0294 C.ar    1  LIG11      -0.0075
     12 C         -12.1409    5.1068   -1.5152 C.ar    1  LIG11      -0.0075
     13 C         -10.1128    4.4219    0.6633 C.ar    1  LIG11      -0.0554
     14 C         -13.3739    5.1979   -0.8294 C.ar    1  LIG11      -0.0554
     15 C         -11.2675    2.3102    0.6585 C.ar    1  LIG11      -0.0554
     16 C         -11.6986    6.2584   -2.1868 C.ar    1  LIG11      -0.0554
     17 C          -9.5030    2.2511   -2.5151 C.2     1  LIG11       0.0856
     18 C         -12.8905    2.7090   -3.1192 C.3     1  LIG11       0.0382
     19 C          -9.7247    4.2064    1.9889 C.ar    1  LIG11      -0.0614
     20 C         -14.1284    6.3738   -0.8280 C.ar    1  LIG11      -0.0614
     21 C         -10.8849    2.0973    1.9862 C.ar    1  LIG11      -0.0614
     22 C         -12.4448    7.4424   -2.1705 C.ar    1  LIG11      -0.0614
     23 C         -10.1159    3.0469    2.6522 C.ar    1  LIG11      -0.0617
     24 C         -13.6607    7.4989   -1.4970 C.ar    1  LIG11      -0.0617
     25 C          -8.3137    4.9067   -3.3224 C.ar    1  LIG11       0.3249
     26 C          -7.8228    4.7352   -5.5348 C.ar    1  LIG11       0.2240
     27 C          -6.5837    6.1264   -4.1572 C.ar    1  LIG11       0.2240
     28 C          -6.7692    5.6015   -5.4155 C.ar    1  LIG11       0.0617
     29 C          -9.0695    3.2037   -6.7782 C.3     1  LIG11       0.0804
     30 C          -5.4245    8.0393   -4.8433 C.3     1  LIG11       0.0804
     31 H         -10.5951    3.8320   -3.5009 H       1  LIG11       0.0834
     32 H          -9.7805    5.3290    0.1640 H       1  LIG11       0.0621
     33 H         -13.7534    4.3262   -0.2975 H       1  LIG11       0.0621
     34 H         -11.8443    1.5390    0.1524 H       1  LIG11       0.0621
     35 H         -10.7637    6.2726   -2.7352 H       1  LIG11       0.0621
     36 H         -13.8038    2.1068   -3.1116 H       1  LIG11       0.0524
     37 H         -13.1470    3.7005   -3.5014 H       1  LIG11       0.0524
     38 H         -12.1910    2.2213   -3.7974 H       1  LIG11       0.0524
     39 H          -9.1015    4.9399    2.4907 H       1  LIG11       0.0618
     40 H         -15.0776    6.4036   -0.3011 H       1  LIG11       0.0618
     41 H         -11.1733    1.1779    2.4857 H       1  LIG11       0.0618
     42 H         -12.0663    8.3192   -2.6892 H       1  LIG11       0.0618
     43 H          -9.8024    2.8728    3.6762 H       1  LIG11       0.0618
     44 H         -14.2390    8.4173   -1.4926 H       1  LIG11       0.0618
     45 H          -6.1408    5.8336   -6.2594 H       1  LIG11       0.0724
     46 H          -9.1741    2.8266   -7.8005 H       1  LIG11       0.0660
     47 H          -8.7695    2.3645   -6.1410 H       1  LIG11       0.0660
     48 H         -10.0430    3.6055   -6.4748 H       1  LIG11       0.0660
     49 H          -4.8604    8.8564   -4.3832 H       1  LIG11       0.0660
     50 H          -4.8434    7.6751   -5.6966 H       1  LIG11       0.0660
     51 H          -6.3881    8.4433   -5.1745 H       1  LIG11       0.0660
@<TRIPOS>BOND
     1     1     9    1
     2     1    18    1
     3     2    10    1
     4     2    25    1
     5     3    17   ar
     6     4    17   ar
     7     5    26    1
     8     5    29    1
     9     6    27    1
    10     6    30    1
    11     7    25   ar
    12     7    26   ar
    13     8    25   ar
    14     8    27   ar
    15     9    10    1
    16     9    11    1
    17     9    12    1
    18    10    17    1
    19    11    13   ar
    20    11    15   ar
    21    12    14   ar
    22    12    16   ar
    23    13    19   ar
    24    14    20   ar
    25    15    21   ar
    26    16    22   ar
    27    19    23   ar
    28    20    24   ar
    29    21    23   ar
    30    22    24   ar
    31    26    28   ar
    32    27    28   ar
    33    10    31    1
    34    13    32    1
    35    14    33    1
    36    15    34    1
    37    16    35    1
    38    18    36    1
    39    18    37    1
    40    18    38    1
    41    19    39    1
    42    20    40    1
    43    21    41    1
    44    22    42    1
    45    23    43    1
    46    24    44    1
    47    28    45    1
    48    29    46    1
    49    29    47    1
    50    29    48    1
    51    30    49    1
    52    30    50    1
    53    30    51    1
@<TRIPOS>MOLECULE
../1EDN/3STEPMIN_17-21.pdb
 47 48 0 0 0
SMALL
GASTEIGER

@<TRIPOS>ATOM
      1  N         -5.4290    0.8830   -1.1740 N.3    17  LEU17      -0.1231
      2  CA        -6.8230    0.6710   -0.7980 C.3    17  LEU17       0.1693
      3  CB        -6.9230   -0.4370    0.2770 C.3    17  LEU17       0.0284
      4  CG        -6.4950   -1.8450   -0.1910 C.3    17  LEU17       0.0019
      5  CD1       -6.5150   -2.8060    0.9980 C.3    17  LEU17       0.0001
      6  CD2       -7.4310   -2.4140   -1.2600 C.3    17  LEU17       0.0001
      7  C         -7.3990    2.0370   -0.3760 C.2    17  LEU17       0.2592
      8  O         -7.4670    2.9330   -1.2040 O.2    17  LEU17      -0.2718
      9  N         -7.7380    2.2560    0.8970 N.am   18  ASP18      -0.1960
     10  CA        -8.5130    3.4280    1.3730 C.3    18  ASP18       0.1840
     11  CB        -9.0510    3.1310    2.7840 C.3    18  ASP18       0.1450
     12  CG       -10.5470    3.4340    2.8500 C.2    18  ASP18       0.3671
     13  OD1      -11.3300    2.4930    2.5610 O.co2  18  ASP18      -0.2456
     14  OD2      -10.9050    4.5930    3.1470 O.co2  18  ASP18      -0.2456
     15  C         -7.8270    4.8120    1.2910 C.2    18  ASP18       0.2622
     16  O         -8.3890    5.8210    1.7350 O.2    18  ASP18      -0.2715
     17  N         -6.6250    4.8510    0.7010 N.am   19  ILE19      -0.1963
     18  CA        -5.9180    6.0210    0.1680 C.3    19  ILE19       0.1727
     19  CB        -4.3960    5.7260    0.0740 C.3    19  ILE19       0.0290
     20  CG2       -3.6150    6.9530   -0.4300 C.3    19  ILE19       0.0023
     21  CG1       -3.7730    5.2100    1.3920 C.3    19  ILE19       0.0022
     22  CD1       -3.8620    6.1700    2.5820 C.3    19  ILE19       0.0001
     23  C         -6.4970    6.4050   -1.2110 C.2    19  ILE19       0.2616
     24  O         -7.0070    7.5130   -1.3720 O.2    19  ILE19      -0.2715
     25  N         -6.3950    5.4980   -2.1940 N.am   20  ILE20      -0.1963
     26  CA        -6.9990    5.5490   -3.5400 C.3    20  ILE20       0.1727
     27  CB        -6.0900    6.2460   -4.5940 C.3    20  ILE20       0.0290
     28  CG2       -6.7980    6.2490   -5.9680 C.3    20  ILE20       0.0023
     29  CG1       -5.7140    7.6970   -4.2070 C.3    20  ILE20       0.0022
     30  CD1       -4.7810    8.4150   -5.1910 C.3    20  ILE20       0.0001
     31  C         -7.3180    4.1070   -3.9880 C.2    20  ILE20       0.2617
     32  O         -6.4020    3.3070   -4.2100 O.2    20  ILE20      -0.2715
     33  N         -8.6100    3.8210   -4.1620 N.am   21  TRP21      -0.1938
     34  CA        -9.2240    2.5950   -4.7020 C.3    21  TRP21       0.2021
     35  CB        -9.7020    1.6830   -3.5450 C.3    21  TRP21       0.0612
     36  CG       -10.4970    2.2370   -2.3850 C.ar   21  TRP21       0.0007
     37  CD1      -10.6860    1.5470   -1.2340 C.ar   21  TRP21       0.0946
     38  NE1      -11.3350    2.3340   -0.3040 N.ar   21  TRP21      -0.2442
     39  CE2      -11.5720    3.5950   -0.7990 C.ar   21  TRP21       0.0810
     40  CZ2      -12.0950    4.7480   -0.2000 C.ar   21  TRP21       0.0191
     41  CH2      -12.2340    5.9130   -0.9670 C.ar   21  TRP21       0.0015
     42  CZ3      -11.8800    5.8920   -2.3260 C.ar   21  TRP21       0.0001
     43  CE3      -11.3480    4.7280   -2.9100 C.ar   21  TRP21       0.0012
     44  CD2      -11.1270    3.5500   -2.1550 C.ar   21  TRP21       0.0152
     45  C        -10.3230    2.8760   -5.7330 C.2    21  TRP21       0.3845
     46  O        -11.0800    1.9620   -6.0950 O.co2  21  TRP21      -0.2437
     47  OXT      -10.4270    4.0430   -6.2080 O.co2  21  TRP21      -0.2437
@<TRIPOS>BOND
     1    47    45   ar
     2    46    45   ar
     3    28    27    1
     4    45    34    1
     5    30    29    1
     6    34    33    1
     7    34    35    1
     8    27    29    1
     9    27    26    1
    10    32    31    2
    11    33    31   am
    12    31    26    1
    13    35    36    1
    14    26    25    1
    15    43    42   ar
    16    43    44   ar
    17    36    44   ar
    18    36    37   ar
    19    42    41   ar
    20    25    23   am
    21    44    39   ar
    22    24    23    2
    23     6     4    1
    24    37    38   ar
    25    23    18    1
    26     8     7    2
    27     1     2    1
    28    41    40   ar
    29    39    38   ar
    30    39    40   ar
    31     2     7    1
    32     2     3    1
    33    20    19    1
    34     7     9   am
    35     4     3    1
    36     4     5    1
    37    19    18    1
    38    19    21    1
    39    18    17    1
    40    17    15   am
    41     9    10    1
    42    15    10    1
    43    15    16    2
    44    10    11    1
    45    21    22    1
    46    13    12   ar
    47    11    12    1
    48    12    14   ar
