@<TRIPOS>MOLECULE
../1EDN/3STEPMIN_17-21_NOBACKBONE.pdb
 26 23 0 0 0
SMALL
GASTEIGER

@<TRIPOS>ATOM
      1  CB        -6.9230   -0.4370    0.2770 C.3    17  LEU17       0.0000
      2  CG        -6.4950   -1.8450   -0.1910 C.3    17  LEU17       0.0000
      3  CD1       -6.5150   -2.8060    0.9980 C.3    17  LEU17       0.0000
      4  CD2       -7.4310   -2.4140   -1.2600 C.3    17  LEU17       0.0000
      5  CB        -9.0510    3.1310    2.7840 C.3    18  ASP18       0.1258
      6  CG       -10.5470    3.4340    2.8500 C.2    18  ASP18       0.3654
      7  OD1      -11.3300    2.4930    2.5610 O.co2  18  ASP18      -0.2456
      8  OD2      -10.9050    4.5930    3.1470 O.co2  18  ASP18      -0.2456
      9  CB        -4.3960    5.7260    0.0740 C.3    19  ILE19       0.0000
     10  CG2       -3.6150    6.9530   -0.4300 C.3    19  ILE19       0.0000
     11  CG1       -3.7730    5.2100    1.3920 C.3    19  ILE19       0.0000
     12  CD1       -3.8620    6.1700    2.5820 C.3    19  ILE19       0.0000
     13  CB        -6.0900    6.2460   -4.5940 C.3    20  ILE20       0.0000
     14  CG2       -6.7980    6.2490   -5.9680 C.3    20  ILE20       0.0000
     15  CG1       -5.7140    7.6970   -4.2070 C.3    20  ILE20       0.0000
     16  CD1       -4.7810    8.4150   -5.1910 C.3    20  ILE20       0.0000
     17  CB        -9.7020    1.6830   -3.5450 C.3    21  TRP21       0.0327
     18  CG       -10.4970    2.2370   -2.3850 C.ar   21  TRP21      -0.0013
     19  CD1      -10.6860    1.5470   -1.2340 C.ar   21  TRP21       0.0946
     20  NE1      -11.3350    2.3340   -0.3040 N.ar   21  TRP21      -0.2442
     21  CE2      -11.5720    3.5950   -0.7990 C.ar   21  TRP21       0.0810
     22  CZ2      -12.0950    4.7480   -0.2000 C.ar   21  TRP21       0.0191
     23  CH2      -12.2340    5.9130   -0.9670 C.ar   21  TRP21       0.0015
     24  CZ3      -11.8800    5.8920   -2.3260 C.ar   21  TRP21       0.0001
     25  CE3      -11.3480    4.7280   -2.9100 C.ar   21  TRP21       0.0012
     26  CD2      -11.1270    3.5500   -2.1550 C.ar   21  TRP21       0.0152
@<TRIPOS>BOND
     1    14    13    1
     2    16    15    1
     3    13    15    1
     4    17    18    1
     5    25    24   ar
     6    25    26   ar
     7    18    26   ar
     8    18    19   ar
     9    24    23   ar
    10    26    21   ar
    11     4     2    1
    12    19    20   ar
    13    23    22   ar
    14    21    20   ar
    15    21    22   ar
    16    10     9    1
    17     2     1    1
    18     2     3    1
    19     9    11    1
    20    11    12    1
    21     7     6   ar
    22     5     6    1
    23     6     8   ar
@<TRIPOS>MOLECULE
2-[[2-[2-butyl-4-[(Z)-2-carboxy-3-(6-methoxy-1,3-benzodioxol-5-yl)prop-1-enyl]pyrazol-3-yl]-5-methoxyphenoxy]methyl]benzoic acid
 77 81 0 0 0
SMALL
GASTEIGER

@<TRIPOS>ATOM
      1 O          -8.9447    1.2984    0.3117 O.3     1  LIG11      -0.4866
      2 O          -4.6075    8.3300   -3.7137 O.3     1  LIG11      -0.4526
      3 O          -5.5138    9.2076   -5.7694 O.3     1  LIG11      -0.4525
      4 O          -7.7489    4.9840   -6.7224 O.3     1  LIG11      -0.4947
      5 O         -11.5814    3.6457    3.3488 O.3     1  LIG11      -0.4950
      6 O          -5.4253    3.9640   -1.0468 O.co2   1  LIG11      -0.5449
      7 O          -4.3456    3.1371   -2.8773 O.co2   1  LIG11      -0.5449
      8 O          -9.5927   -2.3609   -1.7689 O.co2   1  LIG11      -0.5446
      9 O          -7.6776   -3.1040   -2.7160 O.co2   1  LIG11      -0.5446
     10 N         -11.2186    2.2687   -3.0163 N.ar    1  LIG11      -0.2630
     11 N         -10.7159    1.8980   -4.2099 N.ar    1  LIG11      -0.1785
     12 C         -10.2462    2.5776   -2.0676 C.ar    1  LIG11       0.0795
     13 C         -12.6586    2.4358   -2.8852 C.3     1  LIG11       0.0422
     14 C         -13.5211    2.0078   -4.0839 C.3     1  LIG11      -0.0336
     15 C          -9.0478    2.5294   -2.7762 C.ar    1  LIG11       0.0207
     16 C         -10.5500    2.8681   -0.6546 C.ar    1  LIG11       0.0425
     17 C         -14.8980    2.6773   -4.0337 C.3     1  LIG11      -0.0542
     18 C          -9.3985    1.9899   -4.0306 C.ar    1  LIG11       0.0571
     19 C          -7.7388    2.8550   -2.2927 C.2     1  LIG11      -0.0459
     20 C          -6.6648    3.8322   -4.4199 C.3     1  LIG11       0.0029
     21 C         -10.0166    2.1389    0.4211 C.ar    1  LIG11       0.1336
     22 C          -6.7054    3.4014   -2.9752 C.2     1  LIG11      -0.0200
     23 C          -6.4652    5.3151   -4.7485 C.ar    1  LIG11       0.0023
     24 C         -11.4265    3.9251   -0.3466 C.ar    1  LIG11      -0.0456
     25 C         -15.7656    2.2722   -5.2156 C.3     1  LIG11      -0.0652
     26 C         -10.3925    2.4380    1.7411 C.ar    1  LIG11       0.0224
     27 C          -6.9885    5.8445   -5.9694 C.ar    1  LIG11       0.1273
     28 C          -5.6556    6.1415   -3.9462 C.ar    1  LIG11      -0.0092
     29 C         -11.8125    4.2098    0.9690 C.ar    1  LIG11      -0.0191
     30 C          -5.3955    7.4278   -4.3618 C.ar    1  LIG11       0.1667
     31 C         -11.2996    3.4602    2.0222 C.ar    1  LIG11       0.1236
     32 C          -5.9114    7.9251   -5.5302 C.ar    1  LIG11       0.1697
     33 C          -6.7192    7.1680   -6.3493 C.ar    1  LIG11       0.0258
     34 C          -5.3711    3.4757   -2.2093 C.2     1  LIG11       0.0680
     35 C          -9.1945   -0.0290   -0.1838 C.3     1  LIG11       0.1153
     36 C          -4.6367    9.4236   -4.6447 C.3     1  LIG11       0.2332
     37 C          -7.9797   -0.8790    0.1813 C.ar    1  LIG11      -0.0016
     38 C          -7.5407   -1.9583   -0.6241 C.ar    1  LIG11       0.0037
     39 C          -7.2528   -0.5761    1.3551 C.ar    1  LIG11      -0.0547
     40 C          -8.1099    5.3903   -8.0332 C.3     1  LIG11       0.0788
     41 C          -6.3252   -2.5963   -0.2905 C.ar    1  LIG11      -0.0525
     42 C          -6.0762   -1.2500    1.6842 C.ar    1  LIG11      -0.0614
     43 C         -12.3110    4.8184    3.6842 C.3     1  LIG11       0.0788
     44 C          -5.5974   -2.2459    0.8472 C.ar    1  LIG11      -0.0611
     45 C          -8.3301   -2.4897   -1.8119 C.2     1  LIG11       0.0720
     46 H         -12.8132    3.5067   -2.7261 H       1  LIG11       0.0509
     47 H         -12.9737    1.8929   -1.9868 H       1  LIG11       0.0509
     48 H         -13.6266    0.9168   -4.0883 H       1  LIG11       0.0283
     49 H         -13.0436    2.2885   -5.0297 H       1  LIG11       0.0283
     50 H         -14.7748    3.7672   -4.0501 H       1  LIG11       0.0263
     51 H         -15.4104    2.4233   -3.0993 H       1  LIG11       0.0263
     52 H          -8.7447    1.6809   -4.8340 H       1  LIG11       0.0854
     53 H          -7.5520    2.6188   -1.2467 H       1  LIG11       0.0628
     54 H          -7.6009    3.5372   -4.8937 H       1  LIG11       0.0363
     55 H          -5.8848    3.2677   -4.9490 H       1  LIG11       0.0363
     56 H         -11.7966    4.5693   -1.1387 H       1  LIG11       0.0626
     57 H         -15.2684    2.4964   -6.1650 H       1  LIG11       0.0230
     58 H         -16.7135    2.8197   -5.1943 H       1  LIG11       0.0230
     59 H         -15.9895    1.2015   -5.1877 H       1  LIG11       0.0230
     60 H          -9.9296    1.8895    2.5568 H       1  LIG11       0.0691
     61 H          -5.1999    5.7920   -3.0271 H       1  LIG11       0.0659
     62 H         -12.4983    5.0322    1.1297 H       1  LIG11       0.0654
     63 H          -7.1013    7.6077   -7.2585 H       1  LIG11       0.0692
     64 H          -9.3072    0.0335   -1.2673 H       1  LIG11       0.0748
     65 H         -10.0919   -0.4553    0.2790 H       1  LIG11       0.0748
     66 H          -3.6211    9.5895   -5.0201 H       1  LIG11       0.1166
     67 H          -4.9642   10.3247   -4.1140 H       1  LIG11       0.1166
     68 H          -7.5853    0.2318    2.0034 H       1  LIG11       0.0622
     69 H          -8.6381    4.5582   -8.5083 H       1  LIG11       0.0660
     70 H          -7.2243    5.6103   -8.6379 H       1  LIG11       0.0660
     71 H          -8.7946    6.2447   -8.0082 H       1  LIG11       0.0660
     72 H          -5.9514   -3.3870   -0.9439 H       1  LIG11       0.0624
     73 H          -5.5243   -0.9673    2.5743 H       1  LIG11       0.0618
     74 H         -12.3643    4.8793    4.7758 H       1  LIG11       0.0660
     75 H         -13.3373    4.7632    3.3049 H       1  LIG11       0.0660
     76 H         -11.8059    5.7213    3.3267 H       1  LIG11       0.0660
     77 H          -4.6636   -2.7486    1.0681 H       1  LIG11       0.0618
@<TRIPOS>BOND
     1     1    35    1
     2     1    21    1
     3     2    36    1
     4     2    30    1
     5     3    32    1
     6     3    36    1
     7     4    27    1
     8     4    40    1
     9     5    31    1
    10     5    43    1
    11     6    34   ar
    12     7    34   ar
    13     8    45   ar
    14     9    45   ar
    15    10    11   ar
    16    10    12   ar
    17    10    13    1
    18    11    18   ar
    19    12    15   ar
    20    13    14    1
    21    14    17    1
    22    15    18   ar
    23    15    19    1
    24    16    24   ar
    25    16    21   ar
    26    16    12    1
    27    17    25    1
    28    19    22    2
    29    20    22    1
    30    20    23    1
    31    21    26   ar
    32    22    34    1
    33    23    28   ar
    34    23    27   ar
    35    24    29   ar
    36    26    31   ar
    37    27    33   ar
    38    28    30   ar
    39    29    31   ar
    40    30    32   ar
    41    32    33   ar
    42    35    37    1
    43    37    39   ar
    44    37    38   ar
    45    38    41   ar
    46    38    45    1
    47    39    42   ar
    48    41    44   ar
    49    42    44   ar
    50    13    46    1
    51    13    47    1
    52    14    48    1
    53    14    49    1
    54    17    50    1
    55    17    51    1
    56    18    52    1
    57    19    53    1
    58    20    54    1
    59    20    55    1
    60    24    56    1
    61    25    57    1
    62    25    58    1
    63    25    59    1
    64    26    60    1
    65    28    61    1
    66    29    62    1
    67    33    63    1
    68    35    64    1
    69    35    65    1
    70    36    66    1
    71    36    67    1
    72    39    68    1
    73    40    69    1
    74    40    70    1
    75    40    71    1
    76    41    72    1
    77    42    73    1
    78    43    74    1
    79    43    75    1
    80    43    76    1
    81    44    77    1
@<TRIPOS>MOLECULE
../1EDN/3STEPMIN_17-21.pdb
 47 48 0 0 0
SMALL
GASTEIGER

@<TRIPOS>ATOM
      1  N         -5.4290    0.8830   -1.1740 N.3    17  LEU17      -0.1231
      2  CA        -6.8230    0.6710   -0.7980 C.3    17  LEU17       0.1693
      3  CB        -6.9230   -0.4370    0.2770 C.3    17  LEU17       0.0284
      4  CG        -6.4950   -1.8450   -0.1910 C.3    17  LEU17       0.0019
      5  CD1       -6.5150   -2.8060    0.9980 C.3    17  LEU17       0.0001
      6  CD2       -7.4310   -2.4140   -1.2600 C.3    17  LEU17       0.0001
      7  C         -7.3990    2.0370   -0.3760 C.2    17  LEU17       0.2592
      8  O         -7.4670    2.9330   -1.2040 O.2    17  LEU17      -0.2718
      9  N         -7.7380    2.2560    0.8970 N.am   18  ASP18      -0.1960
     10  CA        -8.5130    3.4280    1.3730 C.3    18  ASP18       0.1840
     11  CB        -9.0510    3.1310    2.7840 C.3    18  ASP18       0.1450
     12  CG       -10.5470    3.4340    2.8500 C.2    18  ASP18       0.3671
     13  OD1      -11.3300    2.4930    2.5610 O.co2  18  ASP18      -0.2456
     14  OD2      -10.9050    4.5930    3.1470 O.co2  18  ASP18      -0.2456
     15  C         -7.8270    4.8120    1.2910 C.2    18  ASP18       0.2622
     16  O         -8.3890    5.8210    1.7350 O.2    18  ASP18      -0.2715
     17  N         -6.6250    4.8510    0.7010 N.am   19  ILE19      -0.1963
     18  CA        -5.9180    6.0210    0.1680 C.3    19  ILE19       0.1727
     19  CB        -4.3960    5.7260    0.0740 C.3    19  ILE19       0.0290
     20  CG2       -3.6150    6.9530   -0.4300 C.3    19  ILE19       0.0023
     21  CG1       -3.7730    5.2100    1.3920 C.3    19  ILE19       0.0022
     22  CD1       -3.8620    6.1700    2.5820 C.3    19  ILE19       0.0001
     23  C         -6.4970    6.4050   -1.2110 C.2    19  ILE19       0.2616
     24  O         -7.0070    7.5130   -1.3720 O.2    19  ILE19      -0.2715
     25  N         -6.3950    5.4980   -2.1940 N.am   20  ILE20      -0.1963
     26  CA        -6.9990    5.5490   -3.5400 C.3    20  ILE20       0.1727
     27  CB        -6.0900    6.2460   -4.5940 C.3    20  ILE20       0.0290
     28  CG2       -6.7980    6.2490   -5.9680 C.3    20  ILE20       0.0023
     29  CG1       -5.7140    7.6970   -4.2070 C.3    20  ILE20       0.0022
     30  CD1       -4.7810    8.4150   -5.1910 C.3    20  ILE20       0.0001
     31  C         -7.3180    4.1070   -3.9880 C.2    20  ILE20       0.2617
     32  O         -6.4020    3.3070   -4.2100 O.2    20  ILE20      -0.2715
     33  N         -8.6100    3.8210   -4.1620 N.am   21  TRP21      -0.1938
     34  CA        -9.2240    2.5950   -4.7020 C.3    21  TRP21       0.2021
     35  CB        -9.7020    1.6830   -3.5450 C.3    21  TRP21       0.0612
     36  CG       -10.4970    2.2370   -2.3850 C.ar   21  TRP21       0.0007
     37  CD1      -10.6860    1.5470   -1.2340 C.ar   21  TRP21       0.0946
     38  NE1      -11.3350    2.3340   -0.3040 N.ar   21  TRP21      -0.2442
     39  CE2      -11.5720    3.5950   -0.7990 C.ar   21  TRP21       0.0810
     40  CZ2      -12.0950    4.7480   -0.2000 C.ar   21  TRP21       0.0191
     41  CH2      -12.2340    5.9130   -0.9670 C.ar   21  TRP21       0.0015
     42  CZ3      -11.8800    5.8920   -2.3260 C.ar   21  TRP21       0.0001
     43  CE3      -11.3480    4.7280   -2.9100 C.ar   21  TRP21       0.0012
     44  CD2      -11.1270    3.5500   -2.1550 C.ar   21  TRP21       0.0152
     45  C        -10.3230    2.8760   -5.7330 C.2    21  TRP21       0.3845
     46  O        -11.0800    1.9620   -6.0950 O.co2  21  TRP21      -0.2437
     47  OXT      -10.4270    4.0430   -6.2080 O.co2  21  TRP21      -0.2437
@<TRIPOS>BOND
     1    47    45   ar
     2    46    45   ar
     3    28    27    1
     4    45    34    1
     5    30    29    1
     6    34    33    1
     7    34    35    1
     8    27    29    1
     9    27    26    1
    10    32    31    2
    11    33    31   am
    12    31    26    1
    13    35    36    1
    14    26    25    1
    15    43    42   ar
    16    43    44   ar
    17    36    44   ar
    18    36    37   ar
    19    42    41   ar
    20    25    23   am
    21    44    39   ar
    22    24    23    2
    23     6     4    1
    24    37    38   ar
    25    23    18    1
    26     8     7    2
    27     1     2    1
    28    41    40   ar
    29    39    38   ar
    30    39    40   ar
    31     2     7    1
    32     2     3    1
    33    20    19    1
    34     7     9   am
    35     4     3    1
    36     4     5    1
    37    19    18    1
    38    19    21    1
    39    18    17    1
    40    17    15   am
    41     9    10    1
    42    15    10    1
    43    15    16    2
    44    10    11    1
    45    21    22    1
    46    13    12   ar
    47    11    12    1
    48    12    14   ar
