@<TRIPOS>MOLECULE
../1EDN/3STEPMIN_17-21_NOBACKBONE.pdb
 26 23 0 0 0
SMALL
GASTEIGER

@<TRIPOS>ATOM
      1  CB        -6.9230   -0.4370    0.2770 C.3    17  LEU17       0.0000
      2  CG        -6.4950   -1.8450   -0.1910 C.3    17  LEU17       0.0000
      3  CD1       -6.5150   -2.8060    0.9980 C.3    17  LEU17       0.0000
      4  CD2       -7.4310   -2.4140   -1.2600 C.3    17  LEU17       0.0000
      5  CB        -9.0510    3.1310    2.7840 C.3    18  ASP18       0.1258
      6  CG       -10.5470    3.4340    2.8500 C.2    18  ASP18       0.3654
      7  OD1      -11.3300    2.4930    2.5610 O.co2  18  ASP18      -0.2456
      8  OD2      -10.9050    4.5930    3.1470 O.co2  18  ASP18      -0.2456
      9  CB        -4.3960    5.7260    0.0740 C.3    19  ILE19       0.0000
     10  CG2       -3.6150    6.9530   -0.4300 C.3    19  ILE19       0.0000
     11  CG1       -3.7730    5.2100    1.3920 C.3    19  ILE19       0.0000
     12  CD1       -3.8620    6.1700    2.5820 C.3    19  ILE19       0.0000
     13  CB        -6.0900    6.2460   -4.5940 C.3    20  ILE20       0.0000
     14  CG2       -6.7980    6.2490   -5.9680 C.3    20  ILE20       0.0000
     15  CG1       -5.7140    7.6970   -4.2070 C.3    20  ILE20       0.0000
     16  CD1       -4.7810    8.4150   -5.1910 C.3    20  ILE20       0.0000
     17  CB        -9.7020    1.6830   -3.5450 C.3    21  TRP21       0.0327
     18  CG       -10.4970    2.2370   -2.3850 C.ar   21  TRP21      -0.0013
     19  CD1      -10.6860    1.5470   -1.2340 C.ar   21  TRP21       0.0946
     20  NE1      -11.3350    2.3340   -0.3040 N.ar   21  TRP21      -0.2442
     21  CE2      -11.5720    3.5950   -0.7990 C.ar   21  TRP21       0.0810
     22  CZ2      -12.0950    4.7480   -0.2000 C.ar   21  TRP21       0.0191
     23  CH2      -12.2340    5.9130   -0.9670 C.ar   21  TRP21       0.0015
     24  CZ3      -11.8800    5.8920   -2.3260 C.ar   21  TRP21       0.0001
     25  CE3      -11.3480    4.7280   -2.9100 C.ar   21  TRP21       0.0012
     26  CD2      -11.1270    3.5500   -2.1550 C.ar   21  TRP21       0.0152
@<TRIPOS>BOND
     1    14    13    1
     2    16    15    1
     3    13    15    1
     4    17    18    1
     5    25    24   ar
     6    25    26   ar
     7    18    26   ar
     8    18    19   ar
     9    24    23   ar
    10    26    21   ar
    11     4     2    1
    12    19    20   ar
    13    23    22   ar
    14    21    20   ar
    15    21    22   ar
    16    10     9    1
    17     2     1    1
    18     2     3    1
    19     9    11    1
    20    11    12    1
    21     7     6   ar
    22     5     6    1
    23     6     8   ar
@<TRIPOS>MOLECULE
6433095
 64 68 0 0 0
SMALL
GASTEIGER

@<TRIPOS>ATOM
      1 S         -11.9623    5.2818   -0.9440 S.O2    1  LIG11       0.0908
      2 O         -10.9705    3.5465    2.3528 O.3     1  LIG11      -0.4435
      3 O          -8.5202    2.0819    2.3848 O.3     1  LIG11      -0.4715
      4 O         -11.5567    6.3522   -1.8317 O.2     1  LIG11      -0.1484
      5 O         -13.3705    5.0855   -0.6441 O.2     1  LIG11      -0.1484
      6 O         -12.7523    1.8532    3.3105 O.3     1  LIG11      -0.4914
      7 O          -6.5559   -0.3925    0.4934 O.3     1  LIG11      -0.3917
      8 N         -11.2087    5.5412    0.5478 N.pl3   1  LIG11      -0.1950
      9 N          -8.9243    5.3890   -0.0054 N.ar    1  LIG11      -0.2073
     10 N          -7.5735    3.6872    0.9710 N.ar    1  LIG11      -0.1899
     11 N         -11.3285    2.6838   -0.7744 N.ar    1  LIG11      -0.2351
     12 N          -4.1376    6.4419   -1.4064 N.ar    1  LIG11      -0.2552
     13 N          -4.1784    7.9172   -3.8552 N.ar    1  LIG11      -0.5621
     14 N          -6.2760    7.1989   -4.2996 N.ar    1  LIG11      -0.1535
     15 N          -4.6340    8.2781   -5.0587 N.ar    1  LIG11      -0.3597
     16 N          -5.8701    7.8721   -5.3673 N.ar    1  LIG11      -0.0878
     17 C          -9.9412    4.9269    0.7424 C.ar    1  LIG11       0.1882
     18 C          -9.8483    3.8962    1.6590 C.ar    1  LIG11       0.2307
     19 C          -8.6410    3.2443    1.6559 C.ar    1  LIG11       0.2641
     20 C          -7.7471    4.7745    0.1953 C.ar    1  LIG11       0.1659
     21 C         -11.3321    3.7448   -1.6261 C.ar    1  LIG11       0.1969
     22 C          -6.5246    5.3536   -0.3825 C.ar    1  LIG11       0.0227
     23 C         -10.8449    3.7176   -2.9232 C.ar    1  LIG11      -0.0160
     24 C         -10.8786    3.2499    3.6948 C.ar    1  LIG11       0.1702
     25 C          -6.5124    6.0390   -1.6057 C.ar    1  LIG11      -0.0252
     26 C         -10.3067    1.3934   -2.5574 C.ar    1  LIG11      -0.0322
     27 C         -10.3211    2.5165   -3.3899 C.ar    1  LIG11      -0.0541
     28 C          -5.3044    5.2357    0.3047 C.ar    1  LIG11      -0.0328
     29 C          -7.4008    1.2636    2.0445 C.3     1  LIG11       0.1143
     30 C          -5.3083    6.5561   -2.0885 C.ar    1  LIG11       0.0708
     31 C         -10.8202    1.5329   -1.2689 C.ar    1  LIG11       0.0327
     32 C         -11.8377    2.3596    4.1988 C.ar    1  LIG11       0.1621
     33 C          -9.9490    3.8368    4.5613 C.ar    1  LIG11      -0.0157
     34 C          -4.1600    5.7922   -0.2314 C.ar    1  LIG11       0.0289
     35 C          -9.7256    0.0930   -3.0179 C.3     1  LIG11      -0.0383
     36 C          -7.6243    0.5151    0.7318 C.3     1  LIG11       0.0783
     37 C         -11.7961    1.9815    5.5424 C.ar    1  LIG11      -0.0163
     38 C          -9.9205    3.4644    5.9060 C.ar    1  LIG11      -0.0581
     39 C         -10.8333    2.5294    6.3919 C.ar    1  LIG11      -0.0581
     40 C          -5.2409    7.2300   -3.3877 C.ar    1  LIG11       0.0207
     41 C         -14.0805    1.7811    3.8215 C.3     1  LIG11       0.0790
     42 H          -6.7209   -0.8071   -0.3706 H       1  LIG11       0.2095
     43 H         -11.8818    5.2889    1.2734 H       1  LIG11       0.1754
     44 H          -4.0736    8.8275   -5.7042 H       1  LIG11       0.1651
     45 H         -10.8661    4.6005   -3.5537 H       1  LIG11       0.0653
     46 H          -7.4308    6.1583   -2.1755 H       1  LIG11       0.0646
     47 H          -9.9291    2.4633   -4.4032 H       1  LIG11       0.0622
     48 H          -5.2464    4.7223    1.2610 H       1  LIG11       0.0640
     49 H          -7.2943    0.5277    2.8505 H       1  LIG11       0.0720
     50 H          -6.4566    1.8227    2.0471 H       1  LIG11       0.0720
     51 H         -10.8320    0.6947   -0.5752 H       1  LIG11       0.0833
     52 H          -9.2338    4.5744    4.2102 H       1  LIG11       0.0655
     53 H          -3.2066    5.7264    0.2851 H       1  LIG11       0.0830
     54 H          -9.5595    0.0924   -4.1007 H       1  LIG11       0.0278
     55 H         -10.4050   -0.7344   -2.7897 H       1  LIG11       0.0278
     56 H          -8.7640   -0.0850   -2.5259 H       1  LIG11       0.0278
     57 H          -8.5644   -0.0457    0.7702 H       1  LIG11       0.0591
     58 H          -7.6886    1.2063   -0.1144 H       1  LIG11       0.0591
     59 H         -12.4908    1.2479    5.9384 H       1  LIG11       0.0655
     60 H          -9.1793    3.8976    6.5733 H       1  LIG11       0.0619
     61 H         -10.7959    2.2263    7.4354 H       1  LIG11       0.0619
     62 H         -14.7646    1.7327    2.9687 H       1  LIG11       0.0660
     63 H         -14.3437    2.6677    4.4099 H       1  LIG11       0.0660
     64 H         -14.2136    0.8696    4.4117 H       1  LIG11       0.0660
@<TRIPOS>BOND
     1     1     4    2
     2     1     5    2
     3     1     8    1
     4     1    21    1
     5     2    18    1
     6     2    24    1
     7     3    19    1
     8     3    29    1
     9     6    32    1
    10     6    41    1
    11     7    36    1
    12     8    17    1
    13     9    17   ar
    14     9    20   ar
    15    10    19   ar
    16    10    20   ar
    17    11    21   ar
    18    11    31   ar
    19    12    30   ar
    20    12    34   ar
    21    13    15   ar
    22    13    40   ar
    23    14    16   ar
    24    14    40   ar
    25    15    16   ar
    26    17    18   ar
    27    18    19   ar
    28    20    22    1
    29    21    23   ar
    30    22    25   ar
    31    22    28   ar
    32    23    27   ar
    33    24    32   ar
    34    24    33   ar
    35    25    30   ar
    36    26    27   ar
    37    26    31   ar
    38    26    35    1
    39    28    34   ar
    40    29    36    1
    41    30    40    1
    42    32    37   ar
    43    33    38   ar
    44    37    39   ar
    45    38    39   ar
    46     7    42    1
    47     8    43    1
    48    15    44    1
    49    23    45    1
    50    25    46    1
    51    27    47    1
    52    28    48    1
    53    29    49    1
    54    29    50    1
    55    31    51    1
    56    33    52    1
    57    34    53    1
    58    35    54    1
    59    35    55    1
    60    35    56    1
    61    36    57    1
    62    36    58    1
    63    37    59    1
    64    38    60    1
    65    39    61    1
    66    41    62    1
    67    41    63    1
    68    41    64    1
@<TRIPOS>MOLECULE
../1EDN/3STEPMIN_17-21.pdb
 47 48 0 0 0
SMALL
GASTEIGER

@<TRIPOS>ATOM
      1  N         -5.4290    0.8830   -1.1740 N.3    17  LEU17      -0.1231
      2  CA        -6.8230    0.6710   -0.7980 C.3    17  LEU17       0.1693
      3  CB        -6.9230   -0.4370    0.2770 C.3    17  LEU17       0.0284
      4  CG        -6.4950   -1.8450   -0.1910 C.3    17  LEU17       0.0019
      5  CD1       -6.5150   -2.8060    0.9980 C.3    17  LEU17       0.0001
      6  CD2       -7.4310   -2.4140   -1.2600 C.3    17  LEU17       0.0001
      7  C         -7.3990    2.0370   -0.3760 C.2    17  LEU17       0.2592
      8  O         -7.4670    2.9330   -1.2040 O.2    17  LEU17      -0.2718
      9  N         -7.7380    2.2560    0.8970 N.am   18  ASP18      -0.1960
     10  CA        -8.5130    3.4280    1.3730 C.3    18  ASP18       0.1840
     11  CB        -9.0510    3.1310    2.7840 C.3    18  ASP18       0.1450
     12  CG       -10.5470    3.4340    2.8500 C.2    18  ASP18       0.3671
     13  OD1      -11.3300    2.4930    2.5610 O.co2  18  ASP18      -0.2456
     14  OD2      -10.9050    4.5930    3.1470 O.co2  18  ASP18      -0.2456
     15  C         -7.8270    4.8120    1.2910 C.2    18  ASP18       0.2622
     16  O         -8.3890    5.8210    1.7350 O.2    18  ASP18      -0.2715
     17  N         -6.6250    4.8510    0.7010 N.am   19  ILE19      -0.1963
     18  CA        -5.9180    6.0210    0.1680 C.3    19  ILE19       0.1727
     19  CB        -4.3960    5.7260    0.0740 C.3    19  ILE19       0.0290
     20  CG2       -3.6150    6.9530   -0.4300 C.3    19  ILE19       0.0023
     21  CG1       -3.7730    5.2100    1.3920 C.3    19  ILE19       0.0022
     22  CD1       -3.8620    6.1700    2.5820 C.3    19  ILE19       0.0001
     23  C         -6.4970    6.4050   -1.2110 C.2    19  ILE19       0.2616
     24  O         -7.0070    7.5130   -1.3720 O.2    19  ILE19      -0.2715
     25  N         -6.3950    5.4980   -2.1940 N.am   20  ILE20      -0.1963
     26  CA        -6.9990    5.5490   -3.5400 C.3    20  ILE20       0.1727
     27  CB        -6.0900    6.2460   -4.5940 C.3    20  ILE20       0.0290
     28  CG2       -6.7980    6.2490   -5.9680 C.3    20  ILE20       0.0023
     29  CG1       -5.7140    7.6970   -4.2070 C.3    20  ILE20       0.0022
     30  CD1       -4.7810    8.4150   -5.1910 C.3    20  ILE20       0.0001
     31  C         -7.3180    4.1070   -3.9880 C.2    20  ILE20       0.2617
     32  O         -6.4020    3.3070   -4.2100 O.2    20  ILE20      -0.2715
     33  N         -8.6100    3.8210   -4.1620 N.am   21  TRP21      -0.1938
     34  CA        -9.2240    2.5950   -4.7020 C.3    21  TRP21       0.2021
     35  CB        -9.7020    1.6830   -3.5450 C.3    21  TRP21       0.0612
     36  CG       -10.4970    2.2370   -2.3850 C.ar   21  TRP21       0.0007
     37  CD1      -10.6860    1.5470   -1.2340 C.ar   21  TRP21       0.0946
     38  NE1      -11.3350    2.3340   -0.3040 N.ar   21  TRP21      -0.2442
     39  CE2      -11.5720    3.5950   -0.7990 C.ar   21  TRP21       0.0810
     40  CZ2      -12.0950    4.7480   -0.2000 C.ar   21  TRP21       0.0191
     41  CH2      -12.2340    5.9130   -0.9670 C.ar   21  TRP21       0.0015
     42  CZ3      -11.8800    5.8920   -2.3260 C.ar   21  TRP21       0.0001
     43  CE3      -11.3480    4.7280   -2.9100 C.ar   21  TRP21       0.0012
     44  CD2      -11.1270    3.5500   -2.1550 C.ar   21  TRP21       0.0152
     45  C        -10.3230    2.8760   -5.7330 C.2    21  TRP21       0.3845
     46  O        -11.0800    1.9620   -6.0950 O.co2  21  TRP21      -0.2437
     47  OXT      -10.4270    4.0430   -6.2080 O.co2  21  TRP21      -0.2437
@<TRIPOS>BOND
     1    47    45   ar
     2    46    45   ar
     3    28    27    1
     4    45    34    1
     5    30    29    1
     6    34    33    1
     7    34    35    1
     8    27    29    1
     9    27    26    1
    10    32    31    2
    11    33    31   am
    12    31    26    1
    13    35    36    1
    14    26    25    1
    15    43    42   ar
    16    43    44   ar
    17    36    44   ar
    18    36    37   ar
    19    42    41   ar
    20    25    23   am
    21    44    39   ar
    22    24    23    2
    23     6     4    1
    24    37    38   ar
    25    23    18    1
    26     8     7    2
    27     1     2    1
    28    41    40   ar
    29    39    38   ar
    30    39    40   ar
    31     2     7    1
    32     2     3    1
    33    20    19    1
    34     7     9   am
    35     4     3    1
    36     4     5    1
    37    19    18    1
    38    19    21    1
    39    18    17    1
    40    17    15   am
    41     9    10    1
    42    15    10    1
    43    15    16    2
    44    10    11    1
    45    21    22    1
    46    13    12   ar
    47    11    12    1
    48    12    14   ar
