@<TRIPOS>MOLECULE
../1EDN/PCA1_17-21_NOBACKBONE.pdb
 26 23 0 0 0
SMALL
GASTEIGER

@<TRIPOS>ATOM
      1  CB        -6.0770   -2.3450   -1.7480 C.3    17  LEU17       0.0000
      2  CG        -7.4170   -3.0590   -2.1890 C.3    17  LEU17       0.0000
      3  CD1       -7.4920   -3.1930   -3.7220 C.3    17  LEU17       0.0000
      4  CD2       -7.5340   -4.4610   -1.6100 C.3    17  LEU17       0.0000
      5  CB        -8.8290    0.4520    1.4200 C.3    18  ASP18       0.1258
      6  CG        -9.9140    1.2760    2.0640 C.2    18  ASP18       0.3654
      7  OD1      -10.8560    1.7240    1.3430 O.co2  18  ASP18      -0.2456
      8  OD2       -9.7710    1.5960    3.2830 O.co2  18  ASP18      -0.2456
      9  CB        -5.0730    3.3500    3.1520 C.3    19  ILE19       0.0000
     10  CG2       -4.5850    4.5470    3.9530 C.3    19  ILE19       0.0000
     11  CG1       -5.6210    2.1420    3.9730 C.3    19  ILE19       0.0000
     12  CD1       -6.7460    2.5740    4.8760 C.3    19  ILE19       0.0000
     13  CB        -2.8480    5.4620   -0.8180 C.3    20  ILE20       0.0000
     14  CG2       -2.5210    6.1670    0.5290 C.3    20  ILE20       0.0000
     15  CG1       -1.9270    4.2500   -0.9510 C.3    20  ILE20       0.0000
     16  CD1       -0.4520    4.4090   -1.0350 C.3    20  ILE20       0.0000
     17  CB        -7.1930    6.0870   -4.6010 C.3    21  TRP21       0.0066
     18  CG        -8.1480    4.9210   -4.3560 C.3    21  TRP21       0.0452
     19  CD1       -8.4270    4.3170   -3.1580 C.3    21  TRP21       0.1165
     20  NE1       -9.4680    3.4340   -3.3480 N.pl3  21  TRP21      -0.2376
     21  CE2      -10.0400    3.5420   -4.5600 C.ar   21  TRP21       0.0614
     22  CZ2      -11.2420    2.9770   -5.0990 C.ar   21  TRP21       0.0158
     23  CH2      -11.3060    3.0240   -6.5170 C.ar   21  TRP21       0.0013
     24  CZ3      -10.3640    3.7270   -7.2650 C.ar   21  TRP21      -0.0002
     25  CE3       -9.2810    4.3830   -6.7050 C.ar   21  TRP21      -0.0030
     26  CD2       -9.0950    4.3440   -5.3390 C.ar   21  TRP21      -0.0059
@<TRIPOS>BOND
     1    24    25   ar
     2    24    23   ar
     3    25    26   ar
     4    23    22   ar
     5    26    21   ar
     6    26    18    1
     7    22    21   ar
     8    17    18    1
     9    21    20    1
    10    18    19    1
    11     3     2    1
    12    20    19    1
    13     2     1    1
    14     2     4    1
    15    16    15    1
    16    15    13    1
    17    13    14    1
    18     7     6   ar
    19     5     6    1
    20     6     8   ar
    21     9    10    1
    22     9    11    1
    23    11    12    1
@<TRIPOS>MOLECULE
3047752
 70 74 0 0 0
SMALL
GASTEIGER

@<TRIPOS>ATOM
      1 O          -8.9623    5.4315   -1.2177 O.co2   1  LIG11      -0.5495
      2 O          -6.7547    5.1527   -1.7027 O.co2   1  LIG11      -0.5495
      3 O          -9.9310    5.6291   -6.7147 O.3     1  LIG11      -0.4526
      4 O         -11.6145    3.9457   -7.1084 O.3     1  LIG11      -0.4526
      5 O         -10.9855    0.6974    3.4183 O.3     1  LIG11      -0.4951
      6 O          -4.0698    2.4433    3.4761 O.co2   1  LIG11      -0.5495
      7 O          -4.5401    4.2997    4.6998 O.co2   1  LIG11      -0.5495
      8 N          -6.6911   -0.0308   -1.2829 N.ar    1  LIG11      -0.2556
      9 C          -8.2058    3.2801   -1.7900 C.3     1  LIG11       0.0217
     10 C          -7.4673    2.3550   -0.7860 C.3     1  LIG11       0.0357
     11 C          -7.6538    2.9659   -3.2016 C.3     1  LIG11       0.0199
     12 C          -7.1483    1.5586   -3.0382 C.ar    1  LIG11      -0.0174
     13 C          -7.0807    1.1923   -1.7017 C.ar    1  LIG11       0.0534
     14 C          -8.3315    1.9289    0.4072 C.ar    1  LIG11      -0.0344
     15 C          -8.7256    3.1483   -4.2734 C.ar    1  LIG11      -0.0356
     16 C          -7.9378    4.7530   -1.5174 C.2     1  LIG11       0.0466
     17 C          -6.7333    0.6657   -4.0119 C.ar    1  LIG11      -0.0546
     18 C          -7.9517    2.1380    1.7606 C.ar    1  LIG11      -0.0395
     19 C          -9.5590    1.2763    0.1420 C.ar    1  LIG11      -0.0542
     20 C          -6.3282   -0.9150   -2.2425 C.ar    1  LIG11       0.0416
     21 C          -8.7546    4.3516   -5.0010 C.ar    1  LIG11      -0.0124
     22 C          -6.3194   -0.5984   -3.6053 C.ar    1  LIG11      -0.0401
     23 C          -9.7317    2.1770   -4.5060 C.ar    1  LIG11      -0.0543
     24 C          -6.5950    2.7599    2.1288 C.3     1  LIG11      -0.0196
     25 C          -8.8366    1.7001    2.7731 C.ar    1  LIG11      -0.0165
     26 C          -5.9673   -2.3028   -1.7799 C.3     1  LIG11      -0.0104
     27 C          -6.3417    3.1609    3.6041 C.3     1  LIG11      -0.0003
     28 C          -9.7553    4.5290   -5.9327 C.ar    1  LIG11       0.1665
     29 C         -10.4143    0.8714    1.1639 C.ar    1  LIG11      -0.0197
     30 C         -10.7298    2.3807   -5.4638 C.ar    1  LIG11      -0.0159
     31 C         -10.0687    1.1071    2.4846 C.ar    1  LIG11       0.1204
     32 C         -10.7146    3.5692   -6.1585 C.ar    1  LIG11       0.1662
     33 C          -7.1928   -3.1973   -1.5539 C.3     1  LIG11      -0.0479
     34 C          -7.1519    4.4027    3.9864 C.3     1  LIG11      -0.0570
     35 C          -7.9254   -3.5614   -2.8489 C.3     1  LIG11      -0.0556
     36 C          -4.8382    3.3410    3.9277 C.2     1  LIG11       0.0449
     37 C         -11.1556    5.2847   -7.3860 C.3     1  LIG11       0.2332
     38 C          -9.0561   -4.5465   -2.5947 C.3     1  LIG11      -0.0653
     39 C         -10.9367    1.4091    4.6509 C.3     1  LIG11       0.0788
     40 H          -9.2910    3.1142   -1.7628 H       1  LIG11       0.0379
     41 H          -6.5310    2.8137   -0.4546 H       1  LIG11       0.0419
     42 H          -6.7792    3.5706   -3.4736 H       1  LIG11       0.0404
     43 H          -6.7436    0.9425   -5.0601 H       1  LIG11       0.0622
     44 H          -9.8558    1.0791   -0.8853 H       1  LIG11       0.0622
     45 H          -8.0290    5.1375   -4.8075 H       1  LIG11       0.0658
     46 H          -6.0092   -1.3308   -4.3417 H       1  LIG11       0.0636
     47 H          -9.7457    1.2611   -3.9180 H       1  LIG11       0.0622
     48 H          -5.8351    2.0382    1.8055 H       1  LIG11       0.0319
     49 H          -6.4589    3.6647    1.5226 H       1  LIG11       0.0319
     50 H          -8.5496    1.8203    3.8093 H       1  LIG11       0.0657
     51 H          -5.2766   -2.7735   -2.4900 H       1  LIG11       0.0328
     52 H          -5.4177   -2.2144   -0.8342 H       1  LIG11       0.0328
     53 H          -6.6315    2.3381    4.2684 H       1  LIG11       0.0361
     54 H         -11.3538    0.3876    0.9222 H       1  LIG11       0.0654
     55 H         -11.4996    1.6389   -5.6346 H       1  LIG11       0.0655
     56 H          -6.8551   -4.1208   -1.0670 H       1  LIG11       0.0269
     57 H          -7.8917   -2.7109   -0.8618 H       1  LIG11       0.0269
     58 H          -6.8111    5.2831    3.4303 H       1  LIG11       0.0236
     59 H          -8.2194    4.2735    3.7860 H       1  LIG11       0.0236
     60 H          -7.0517    4.6241    5.0549 H       1  LIG11       0.0236
     61 H          -8.3467   -2.6633   -3.3132 H       1  LIG11       0.0263
     62 H          -7.2216   -4.0008   -3.5652 H       1  LIG11       0.0263
     63 H         -11.9362    5.9930   -7.0828 H       1  LIG11       0.1166
     64 H         -10.9998    5.3806   -8.4663 H       1  LIG11       0.1166
     65 H          -9.7924   -4.1283   -1.9010 H       1  LIG11       0.0230
     66 H          -9.5692   -4.7830   -3.5324 H       1  LIG11       0.0230
     67 H          -8.6752   -5.4813   -2.1717 H       1  LIG11       0.0230
     68 H         -11.8549    1.1817    5.2016 H       1  LIG11       0.0660
     69 H         -10.0931    1.0738    5.2622 H       1  LIG11       0.0660
     70 H         -10.9059    2.4933    4.4937 H       1  LIG11       0.0660
@<TRIPOS>BOND
     1     1    16   ar
     2     2    16   ar
     3     3    28    1
     4     3    37    1
     5     4    32    1
     6     4    37    1
     7     5    31    1
     8     5    39    1
     9     6    36   ar
    10     7    36   ar
    11     8    13   ar
    12     8    20   ar
    13     9    10    1
    14     9    11    1
    15     9    16    1
    16    10    13    1
    17    10    14    1
    18    11    12    1
    19    11    15    1
    20    12    13   ar
    21    12    17   ar
    22    14    18   ar
    23    14    19   ar
    24    15    21   ar
    25    15    23   ar
    26    17    22   ar
    27    18    24    1
    28    18    25   ar
    29    19    29   ar
    30    20    22   ar
    31    20    26    1
    32    21    28   ar
    33    23    30   ar
    34    24    27    1
    35    25    31   ar
    36    26    33    1
    37    27    34    1
    38    27    36    1
    39    28    32   ar
    40    29    31   ar
    41    30    32   ar
    42    33    35    1
    43    35    38    1
    44     9    40    1
    45    10    41    1
    46    11    42    1
    47    17    43    1
    48    19    44    1
    49    21    45    1
    50    22    46    1
    51    23    47    1
    52    24    48    1
    53    24    49    1
    54    25    50    1
    55    26    51    1
    56    26    52    1
    57    27    53    1
    58    29    54    1
    59    30    55    1
    60    33    56    1
    61    33    57    1
    62    34    58    1
    63    34    59    1
    64    34    60    1
    65    35    61    1
    66    35    62    1
    67    37    63    1
    68    37    64    1
    69    38    65    1
    70    38    66    1
    71    38    67    1
    72    39    68    1
    73    39    69    1
    74    39    70    1
@<TRIPOS>MOLECULE
../1EDN/PCA1_17-21.pdb
 47 48 0 0 0
SMALL
GASTEIGER

@<TRIPOS>ATOM
      1  N         -4.6470   -0.3680   -1.6750 N.3    17  LEU17      -0.1231
      2  CA        -5.8920   -0.8550   -2.2480 C.3    17  LEU17       0.1693
      3  CB        -6.0770   -2.3450   -1.7480 C.3    17  LEU17       0.0284
      4  CG        -7.4170   -3.0590   -2.1890 C.3    17  LEU17       0.0019
      5  CD1       -7.4920   -3.1930   -3.7220 C.3    17  LEU17       0.0001
      6  CD2       -7.5340   -4.4610   -1.6100 C.3    17  LEU17       0.0001
      7  C         -7.0080    0.1010   -1.8270 C.2    17  LEU17       0.2592
      8  O         -7.6220    0.6590   -2.7680 O.2    17  LEU17      -0.2718
      9  N         -7.2890    0.1920   -0.5460 N.am   18  ASP18      -0.1960
     10  CA        -8.2730    1.1070    0.1120 C.3    18  ASP18       0.1840
     11  CB        -8.8290    0.4520    1.4200 C.3    18  ASP18       0.1450
     12  CG        -9.9140    1.2760    2.0640 C.2    18  ASP18       0.3671
     13  OD1      -10.8560    1.7240    1.3430 O.co2  18  ASP18      -0.2456
     14  OD2       -9.7710    1.5960    3.2830 O.co2  18  ASP18      -0.2456
     15  C         -7.6270    2.4530    0.4740 C.2    18  ASP18       0.2622
     16  O         -8.0770    3.4620   -0.0480 O.2    18  ASP18      -0.2715
     17  N         -6.6010    2.4770    1.3340 N.am   19  ILE19      -0.1963
     18  CA        -6.1660    3.6270    2.0790 C.3    19  ILE19       0.1727
     19  CB        -5.0730    3.3500    3.1520 C.3    19  ILE19       0.0290
     20  CG2       -4.5850    4.5470    3.9530 C.3    19  ILE19       0.0023
     21  CG1       -5.6210    2.1420    3.9730 C.3    19  ILE19       0.0022
     22  CD1       -6.7460    2.5740    4.8760 C.3    19  ILE19       0.0001
     23  C         -5.6740    4.7260    1.1170 C.2    19  ILE19       0.2616
     24  O         -5.9640    5.8590    1.4260 O.2    19  ILE19      -0.2715
     25  N         -4.8940    4.3400    0.1060 N.am   20  ILE20      -0.1963
     26  CA        -4.3700    5.1770   -0.9560 C.3    20  ILE20       0.1727
     27  CB        -2.8480    5.4620   -0.8180 C.3    20  ILE20       0.0290
     28  CG2       -2.5210    6.1670    0.5290 C.3    20  ILE20       0.0023
     29  CG1       -1.9270    4.2500   -0.9510 C.3    20  ILE20       0.0022
     30  CD1       -0.4520    4.4090   -1.0350 C.3    20  ILE20       0.0001
     31  C         -4.8260    4.7960   -2.3980 C.2    20  ILE20       0.2617
     32  O         -4.8210    3.6210   -2.7490 O.2    20  ILE20      -0.2715
     33  N         -5.1950    5.7710   -3.1960 N.am   21  TRP21      -0.1941
     34  CA        -5.6960    5.8160   -4.5740 C.3    21  TRP21       0.1982
     35  CB        -7.1930    6.0870   -4.6010 C.3    21  TRP21       0.0394
     36  CG        -8.1480    4.9210   -4.3560 C.3    21  TRP21       0.0475
     37  CD1       -8.4270    4.3170   -3.1580 C.3    21  TRP21       0.1166
     38  NE1       -9.4680    3.4340   -3.3480 N.pl3  21  TRP21      -0.2376
     39  CE2      -10.0400    3.5420   -4.5600 C.ar   21  TRP21       0.0614
     40  CZ2      -11.2420    2.9770   -5.0990 C.ar   21  TRP21       0.0158
     41  CH2      -11.3060    3.0240   -6.5170 C.ar   21  TRP21       0.0013
     42  CZ3      -10.3640    3.7270   -7.2650 C.ar   21  TRP21      -0.0002
     43  CE3       -9.2810    4.3830   -6.7050 C.ar   21  TRP21      -0.0030
     44  CD2       -9.0950    4.3440   -5.3390 C.ar   21  TRP21      -0.0059
     45  C         -4.8510    6.8160   -5.3910 C.2    21  TRP21       0.3842
     46  O         -5.0400    8.0490   -5.1500 O.co2  21  TRP21      -0.2437
     47  OXT       -3.9720    6.3760   -6.1010 O.co2  21  TRP21      -0.2437
@<TRIPOS>BOND
     1    42    43   ar
     2    42    41   ar
     3    43    44   ar
     4    41    40   ar
     5    47    45   ar
     6    45    46   ar
     7    45    34    1
     8    44    39   ar
     9    44    36    1
    10    40    39   ar
    11    35    34    1
    12    35    36    1
    13    34    33    1
    14    39    38    1
    15    36    37    1
    16     5     4    1
    17    38    37    1
    18    33    31   am
    19     8     7    2
    20    32    31    2
    21    31    26    1
    22     2     7    1
    23     2     3    1
    24     2     1    1
    25     4     3    1
    26     4     6    1
    27     7     9   am
    28    30    29    1
    29    26    27    1
    30    26    25    1
    31    29    27    1
    32    27    28    1
    33     9    10    1
    34    16    15    2
    35    25    23   am
    36    10    15    1
    37    10    11    1
    38    15    17   am
    39    23    24    2
    40    23    18    1
    41    17    18    1
    42    13    12   ar
    43    11    12    1
    44    12    14   ar
    45    18    19    1
    46    19    20    1
    47    19    21    1
    48    21    22    1
