@<TRIPOS>MOLECULE
../1EDN/PCA2_17-21_NOBACKBONE.pdb
 26 23 0 0 0
SMALL
GASTEIGER

@<TRIPOS>ATOM
      1  CB        -5.9860   -1.2020   -0.4580 C.3    17  LEU17       0.0000
      2  CG        -7.1280   -2.2100   -0.5390 C.3    17  LEU17       0.0000
      3  CD1       -6.7120   -3.3620   -1.4700 C.3    17  LEU17       0.0000
      4  CD2       -7.4980   -2.5610    0.9130 C.3    17  LEU17       0.0000
      5  CB        -9.6810    1.0560   -1.6740 C.3    18  ASP18       0.1258
      6  CG       -11.0010    1.6360   -2.1090 C.2    18  ASP18       0.3654
      7  OD1      -11.5960    2.3310   -1.2790 O.co2  18  ASP18      -0.2456
      8  OD2      -11.5460    1.2700   -3.1630 O.co2  18  ASP18      -0.2456
      9  CB        -8.4260    4.8620    1.7600 C.3    19  ILE19       0.0000
     10  CG2       -7.7310    6.0060    2.5190 C.3    19  ILE19       0.0000
     11  CG1       -9.9240    4.5740    2.2500 C.3    19  ILE19       0.0000
     12  CD1      -10.9740    5.6950    2.0110 C.3    19  ILE19       0.0000
     13  CB        -3.5230    4.9310   -0.1080 C.3    20  ILE20       0.0000
     14  CG2       -2.1210    5.5060   -0.7390 C.3    20  ILE20       0.0000
     15  CG1       -3.5940    5.4760    1.3470 C.3    20  ILE20       0.0000
     16  CD1       -2.3570    5.1940    2.2260 C.3    20  ILE20       0.0000
     17  CB        -6.6210    3.8650   -5.0310 C.3    21  TRP21       0.0327
     18  CG        -6.7890    3.3770   -6.4480 C.ar   21  TRP21      -0.0013
     19  CD1       -7.1340    4.1960   -7.4760 C.ar   21  TRP21       0.0946
     20  NE1       -7.1740    3.4060   -8.6160 N.ar   21  TRP21      -0.2442
     21  CE2       -6.9360    2.0750   -8.3350 C.ar   21  TRP21       0.0810
     22  CZ2       -6.8300    1.0510   -9.2060 C.ar   21  TRP21       0.0191
     23  CH2       -6.3330   -0.2010   -8.7710 C.ar   21  TRP21       0.0015
     24  CZ3       -5.9560   -0.2520   -7.3640 C.ar   21  TRP21       0.0001
     25  CE3       -6.0150    0.8940   -6.5860 C.ar   21  TRP21       0.0012
     26  CD2       -6.6320    2.0560   -6.9830 C.ar   21  TRP21       0.0152
@<TRIPOS>BOND
     1    22    23   ar
     2    22    21   ar
     3    23    24   ar
     4    20    21   ar
     5    20    19   ar
     6    21    26   ar
     7    19    18   ar
     8    24    25   ar
     9    26    25   ar
    10    26    18   ar
    11    18    17    1
    12     8     6   ar
    13     6     5    1
    14     6     7   ar
    15     3     2    1
    16    14    13    1
    17     2     1    1
    18     2     4    1
    19    13    15    1
    20    15    16    1
    21     9    11    1
    22     9    10    1
    23    12    11    1
@<TRIPOS>MOLECULE
123882
 117 122 0 0 0
SMALL
GASTEIGER

@<TRIPOS>ATOM
      1 S          -1.5919    4.1321    1.3410 S.2     3  UNK33      -0.0993
      2 O          -8.2652    2.7508   -8.7299 O.2     1  UNK11      -0.2755
      3 O          -8.9126    0.4300    1.1435 O.2     4  LEU44      -0.2738
      4 O          -5.9499    4.7716   -4.5970 O.2     1  UNK11      -0.2737
      5 O          -7.8415    2.6541   -2.1912 O.2     5  TRP55      -0.2738
      6 O          -9.4182    4.1312   -5.1098 O.2     6  ASP66      -0.2738
      7 O          -4.6194    2.2856    1.8903 O.2     3  UNK33      -0.2734
      8 O          -4.3923    1.3886   -2.3813 O.2     2  ASP22      -0.2737
      9 OD1       -12.1140    0.8253   -2.7174 O.co2   6  ASP66      -0.5497
     10 OD2       -11.9036   -0.5808   -4.5111 O.co2   6  ASP66      -0.5497
     11 OD1        -3.0298    2.0944   -6.7098 O.co2   2  ASP22      -0.5497
     12 OD2        -1.1873    3.3451   -6.1670 O.co2   2  ASP22      -0.5497
     13 N          -6.9923    0.8993   -9.1973 N.am    1  UNK11      -0.2984
     14 N          -5.9413   -0.6663  -11.4310 N.pl3   1  UNK11      -0.3269
     15 N          -7.9084    2.4150   -5.4156 N.am    1  UNK11      -0.3020
     16 N          -8.1234    2.4378    0.3717 N.am    5  TRP55      -0.3022
     17 N          -5.6427    1.5778   -0.0090 N.am    4  LEU44      -0.3022
     18 N         -10.0835    2.5821   -2.6572 N.am    6  ASP66      -0.3021
     19 N          -4.8935    2.7653   -4.8963 N.am    2  ASP22      -0.3021
     20 N          -3.9786    3.4767   -1.5864 N.am    3  UNK33      -0.2984
     21 NE1       -10.9884    4.3159    3.4875 N.ar    5  TRP55      -0.3604
     22 C          -5.7283    0.1547   -9.0683 C.3     1  UNK11       0.0304
     23 C          -7.8797    0.4652  -10.2776 C.3     1  UNK11       0.0304
     24 C          -5.6173   -1.0350  -10.0369 C.3     1  UNK11       0.0280
     25 C          -7.1082    0.2458  -11.5916 C.3     1  UNK11       0.0280
     26 C          -7.3030    2.0363   -8.4528 C.2     1  UNK11       0.2179
     27 C          -6.3482    2.3664   -7.3209 C.3     1  UNK11       0.0510
     28 C          -6.9581    3.2077   -6.1981 C.3     1  UNK11       0.1076
     29 CA         -6.5238    0.5907    0.6430 C.3     4  LEU44       0.0997
     30 CB         -6.4397   -0.7167   -0.1686 C.3     4  LEU44      -0.0236
     31 CA         -9.3553    2.8486   -0.3058 C.3     5  TRP55       0.1034
     32 C          -4.9028   -0.3968  -12.3327 C.ar    1  UNK11       0.0298
     33 CG         -7.1687   -1.9552    0.3883 C.3     4  LEU44      -0.0446
     34 CB         -9.7393    4.2969    0.0159 C.3     5  TRP55       0.0013
     35 C          -7.9740    1.1161    0.7423 C.2     4  LEU44       0.2340
     36 CA         -9.8462    1.9993   -3.9803 C.3     6  ASP66       0.1045
     37 C          -5.8758    3.6959   -5.1921 C.2     1  UNK11       0.2344
     38 CG        -10.0396    4.5068    1.4773 C.ar    5  TRP55      -0.0201
     39 C          -9.0130    2.6885   -1.8012 C.2     5  TRP55       0.2343
     40 C          -9.0536    2.9803   -4.8776 C.2     6  ASP66       0.2343
     41 CA         -3.7752    3.0924   -4.0257 C.3     2  ASP22       0.1045
     42 CD2        -6.7919   -2.2687    1.8346 C.3     4  LEU44      -0.0626
     43 CD1        -6.8668   -3.1674   -0.5006 C.3     4  LEU44      -0.0626
     44 C          -3.6252    3.0332   -0.2374 C.3     3  UNK33       0.1311
     45 C          -3.6082   -0.0319  -11.9387 C.ar    1  UNK11      -0.0407
     46 C          -5.1521   -0.4811  -13.7137 C.ar    1  UNK11      -0.0407
     47 CD2        -9.2799    5.2709    2.4249 C.ar    5  TRP55       0.0029
     48 C          -4.7008    2.3237    0.6603 C.2     3  UNK33       0.2390
     49 CB        -11.1441    1.6425   -4.6942 C.3     6  ASP66       0.0138
     50 CD1       -11.0976    3.9534    2.1740 C.ar    5  TRP55       0.0060
     51 CE2        -9.8964    5.1310    3.6700 C.ar    5  TRP55       0.0467
     52 C          -4.1010    2.5640   -2.6118 C.2     2  ASP22       0.2345
     53 CB         -2.4827    2.3936   -4.4495 C.3     2  ASP22       0.0138
     54 C          -2.6111    0.2516  -12.8796 C.ar    1  UNK11      -0.0600
     55 C          -4.1588   -0.2066  -14.6592 C.ar    1  UNK11      -0.0600
     56 C          -3.0921    4.2396    0.5090 C.ar    3  UNK33       0.0189
     57 CE3        -8.1094    6.0550    2.3459 C.ar    5  TRP55      -0.0523
     58 C          -2.8861    0.1642  -14.2402 C.ar    1  UNK11      -0.0616
     59 CZ2        -9.4036    5.7324    4.8358 C.ar    5  TRP55      -0.0378
     60 CG        -11.7839    0.5163   -3.9026 C.2     6  ASP66       0.0440
     61 CZ3        -7.6049    6.6667    3.5004 C.ar    5  TRP55      -0.0611
     62 C          -3.6480    5.5007    0.6429 C.ar    3  UNK33      -0.0493
     63 CH2        -8.2444    6.5058    4.7270 C.ar    5  TRP55      -0.0598
     64 CG         -2.2039    2.6452   -5.9185 C.2     2  ASP22       0.0440
     65 C          -2.8397    6.3719    1.4291 C.ar    3  UNK33      -0.0544
     66 C          -1.7005    5.7482    1.8835 C.ar    3  UNK33      -0.0240
     67 H          -7.5047    1.6661   -4.8638 H       1  UNK11       0.1495
     68 H          -7.2821    2.8194   -0.0534 H       5  TRP55       0.1495
     69 H          -5.5989    1.5593   -1.0315 H       4  LEU44       0.1495
     70 H         -10.9434    2.2061   -2.2388 H       6  ASP66       0.1495
     71 H          -4.6064    2.1539   -5.6623 H       2  ASP22       0.1495
     72 H          -3.6742    4.4016   -1.8625 H       3  UNK33       0.1498
     73 HE1       -11.6076    4.0115    4.2240 H       5  TRP55       0.1653
     74 H          -4.9124    0.8664   -9.2336 H       1  UNK11       0.0480
     75 H          -5.6462   -0.2265   -8.0458 H       1  UNK11       0.0480
     76 H          -8.3429   -0.4738   -9.9504 H       1  UNK11       0.0480
     77 H          -8.6900    1.1825  -10.4400 H       1  UNK11       0.0480
     78 H          -6.3427   -1.8009   -9.7313 H       1  UNK11       0.0479
     79 H          -4.6390   -1.5219   -9.9489 H       1  UNK11       0.0479
     80 H          -6.7745    1.2287  -11.9511 H       1  UNK11       0.0479
     81 H          -7.7906   -0.1740  -12.3398 H       1  UNK11       0.0479
     82 H          -5.9942    1.4279   -6.8884 H       1  UNK11       0.0381
     83 H          -5.4961    2.8932   -7.7666 H       1  UNK11       0.0381
     84 H          -7.4518    4.0944   -6.6117 H       1  UNK11       0.0599
     85 HA         -6.1691    0.4355    1.6659 H       4  LEU44       0.0594
     86 HB1        -6.8188   -0.5259   -1.1830 H       4  LEU44       0.0290
     87 HB2        -5.3768   -0.9696   -0.2923 H       4  LEU44       0.0290
     88 HA        -10.1683    2.1569   -0.0548 H       5  TRP55       0.0598
     89 HG         -8.2505   -1.7897    0.3412 H       4  LEU44       0.0296
     90 HB1        -8.9363    4.9758   -0.2978 H       5  TRP55       0.0337
     91 HB2       -10.6236    4.5862   -0.5666 H       5  TRP55       0.0337
     92 HA         -9.2508    1.0894   -3.8240 H       6  ASP66       0.0598
     93 HA         -3.6280    4.1779   -4.0112 H       2  ASP22       0.0598
     94 HD21       -5.7087   -2.3807    1.9477 H       4  LEU44       0.0232
     95 HD22       -7.1285   -1.4790    2.5130 H       4  LEU44       0.0232
     96 HD23       -7.2647   -3.2001    2.1648 H       4  LEU44       0.0232
     97 HD11       -5.8001   -3.4166   -0.4850 H       4  LEU44       0.0232
     98 HD12       -7.4244   -4.0471   -0.1625 H       4  LEU44       0.0232
     99 HD13       -7.1538   -2.9704   -1.5392 H       4  LEU44       0.0232
    100 H          -2.8269    2.2883   -0.3635 H       3  UNK33       0.0651
    101 H          -3.3497    0.0795  -10.8893 H       1  UNK11       0.0636
    102 H          -6.1363   -0.7839  -14.0615 H       1  UNK11       0.0636
    103 HB1       -11.8318    2.4946   -4.7387 H       6  ASP66       0.0348
    104 HB2       -10.9453    1.3214   -5.7238 H       6  ASP66       0.0348
    105 HD1       -11.8916    3.2941    1.8472 H       5  TRP55       0.0810
    106 HB1        -1.6467    2.7387   -3.8291 H       2  ASP22       0.0348
    107 HB2        -2.5501    1.3070   -4.3068 H       2  ASP22       0.0348
    108 H          -1.6244    0.5531  -12.5369 H       1  UNK11       0.0618
    109 H          -4.3856   -0.2827  -15.7182 H       1  UNK11       0.0618
    110 HE3        -7.5954    6.1754    1.3976 H       5  TRP55       0.0624
    111 H          -2.1121    0.3891  -14.9673 H       1  UNK11       0.0618
    112 HZ2        -9.8938    5.5952    5.7934 H       5  TRP55       0.0638
    113 HZ3        -6.6980    7.2617    3.4353 H       5  TRP55       0.0618
    114 H          -4.5947    5.7833    0.1955 H       3  UNK33       0.0626
    115 HH2        -7.8308    6.9787    5.6139 H       5  TRP55       0.0618
    116 H          -3.0878    7.4009    1.6560 H       3  UNK33       0.0623
    117 H          -0.9209    6.1619    2.5070 H       3  UNK33       0.0693
@<TRIPOS>BOND
     1     1    56   ar
     2     1    66   ar
     3     2    26    2
     4     3    35    2
     5     4    37    2
     6     5    39    2
     7     6    40    2
     8     7    48    2
     9     8    52    2
    10     9    60   ar
    11    10    60   ar
    12    11    64   ar
    13    12    64   ar
    14    13    22    1
    15    13    23    1
    16    14    24    1
    17    14    25    1
    18    14    32    1
    19    15    28    1
    20    15    40   am
    21    16    35   am
    22    16    31    1
    23    17    48   am
    24    17    29    1
    25    18    39   am
    26    18    36    1
    27    19    37   am
    28    19    41    1
    29    20    52   am
    30    20    44    1
    31    21    50   ar
    32    21    51   ar
    33    22    24    1
    34    23    25    1
    35    26    27    1
    36    26    13   am
    37    28    37    1
    38    28    27    1
    39    29    35    1
    40    29    30    1
    41    30    33    1
    42    31    39    1
    43    31    34    1
    44    32    45   ar
    45    32    46   ar
    46    33    43    1
    47    33    42    1
    48    34    38    1
    49    36    40    1
    50    36    49    1
    51    38    47   ar
    52    38    50   ar
    53    41    52    1
    54    41    53    1
    55    44    48    1
    56    44    56    1
    57    45    54   ar
    58    46    55   ar
    59    47    57   ar
    60    47    51   ar
    61    49    60    1
    62    51    59   ar
    63    53    64    1
    64    54    58   ar
    65    55    58   ar
    66    56    62   ar
    67    57    61   ar
    68    59    63   ar
    69    61    63   ar
    70    62    65   ar
    71    65    66   ar
    72    15    67    1
    73    16    68    1
    74    17    69    1
    75    18    70    1
    76    19    71    1
    77    20    72    1
    78    21    73    1
    79    22    74    1
    80    22    75    1
    81    23    76    1
    82    23    77    1
    83    24    78    1
    84    24    79    1
    85    25    80    1
    86    25    81    1
    87    27    82    1
    88    27    83    1
    89    28    84    1
    90    29    85    1
    91    30    86    1
    92    30    87    1
    93    31    88    1
    94    33    89    1
    95    34    90    1
    96    34    91    1
    97    36    92    1
    98    41    93    1
    99    42    94    1
   100    42    95    1
   101    42    96    1
   102    43    97    1
   103    43    98    1
   104    43    99    1
   105    44   100    1
   106    45   101    1
   107    46   102    1
   108    49   103    1
   109    49   104    1
   110    50   105    1
   111    53   106    1
   112    53   107    1
   113    54   108    1
   114    55   109    1
   115    57   110    1
   116    58   111    1
   117    59   112    1
   118    61   113    1
   119    62   114    1
   120    63   115    1
   121    65   116    1
   122    66   117    1
@<TRIPOS>MOLECULE
../1EDN/PCA2_17-21.pdb
 47 48 0 0 0
SMALL
GASTEIGER

@<TRIPOS>ATOM
      1  N         -4.4680    0.3970   -1.5420 N.3    17  LEU17      -0.1231
      2  CA        -5.5730   -0.5090   -1.8150 C.3    17  LEU17       0.1693
      3  CB        -5.9860   -1.2020   -0.4580 C.3    17  LEU17       0.0284
      4  CG        -7.1280   -2.2100   -0.5390 C.3    17  LEU17       0.0019
      5  CD1       -6.7120   -3.3620   -1.4700 C.3    17  LEU17       0.0001
      6  CD2       -7.4980   -2.5610    0.9130 C.3    17  LEU17       0.0001
      7  C         -6.7000    0.2280   -2.5610 C.2    17  LEU17       0.2592
      8  O         -7.1860   -0.2780   -3.5510 O.2    17  LEU17      -0.2718
      9  N         -7.2650    1.2690   -1.9650 N.am   18  ASP18      -0.1960
     10  CA        -8.5260    1.8930   -2.2590 C.3    18  ASP18       0.1840
     11  CB        -9.6810    1.0560   -1.6740 C.3    18  ASP18       0.1450
     12  CG       -11.0010    1.6360   -2.1090 C.2    18  ASP18       0.3671
     13  OD1      -11.5960    2.3310   -1.2790 O.co2  18  ASP18      -0.2456
     14  OD2      -11.5460    1.2700   -3.1630 O.co2  18  ASP18      -0.2456
     15  C         -8.5570    3.3770   -1.7380 C.2    18  ASP18       0.2622
     16  O         -8.6960    4.2620   -2.5680 O.2    18  ASP18      -0.2715
     17  N         -8.4180    3.5730   -0.4160 N.am   19  ILE19      -0.1963
     18  CA        -8.3980    4.9040    0.1930 C.3    19  ILE19       0.1727
     19  CB        -8.4260    4.8620    1.7600 C.3    19  ILE19       0.0290
     20  CG2       -7.7310    6.0060    2.5190 C.3    19  ILE19       0.0023
     21  CG1       -9.9240    4.5740    2.2500 C.3    19  ILE19       0.0022
     22  CD1      -10.9740    5.6950    2.0110 C.3    19  ILE19       0.0001
     23  C         -7.1570    5.7010   -0.3260 C.2    19  ILE19       0.2616
     24  O         -7.3050    6.7970   -0.9200 O.2    19  ILE19      -0.2715
     25  N         -5.9900    5.0720   -0.2260 N.am   20  ILE20      -0.1963
     26  CA        -4.7520    5.3490   -0.9430 C.3    20  ILE20       0.1727
     27  CB        -3.5230    4.9310   -0.1080 C.3    20  ILE20       0.0290
     28  CG2       -2.1210    5.5060   -0.7390 C.3    20  ILE20       0.0023
     29  CG1       -3.5940    5.4760    1.3470 C.3    20  ILE20       0.0022
     30  CD1       -2.3570    5.1940    2.2260 C.3    20  ILE20       0.0001
     31  C         -4.7590    4.7050   -2.3650 C.2    20  ILE20       0.2617
     32  O         -4.2060    3.6200   -2.5900 O.2    20  ILE20      -0.2715
     33  N         -5.4060    5.3330   -3.3880 N.am   21  TRP21      -0.1938
     34  CA        -5.3950    4.7680   -4.7850 C.3    21  TRP21       0.2021
     35  CB        -6.6210    3.8650   -5.0310 C.3    21  TRP21       0.0612
     36  CG        -6.7890    3.3770   -6.4480 C.ar   21  TRP21       0.0007
     37  CD1       -7.1340    4.1960   -7.4760 C.ar   21  TRP21       0.0946
     38  NE1       -7.1740    3.4060   -8.6160 N.ar   21  TRP21      -0.2442
     39  CE2       -6.9360    2.0750   -8.3350 C.ar   21  TRP21       0.0810
     40  CZ2       -6.8300    1.0510   -9.2060 C.ar   21  TRP21       0.0191
     41  CH2       -6.3330   -0.2010   -8.7710 C.ar   21  TRP21       0.0015
     42  CZ3       -5.9560   -0.2520   -7.3640 C.ar   21  TRP21       0.0001
     43  CE3       -6.0150    0.8940   -6.5860 C.ar   21  TRP21       0.0012
     44  CD2       -6.6320    2.0560   -6.9830 C.ar   21  TRP21       0.0152
     45  C         -5.1960    5.8550   -5.8260 C.2    21  TRP21       0.3845
     46  O         -4.1840    5.6720   -6.5070 O.co2  21  TRP21      -0.2437
     47  OXT       -5.9640    6.8330   -6.0170 O.co2  21  TRP21      -0.2437
@<TRIPOS>BOND
     1    40    41   ar
     2    40    39   ar
     3    41    42   ar
     4    38    39   ar
     5    38    37   ar
     6    39    44   ar
     7    37    36   ar
     8    42    43   ar
     9    44    43   ar
    10    44    36   ar
    11    46    45   ar
    12    36    35    1
    13    47    45   ar
    14    45    34    1
    15    35    34    1
    16    34    33    1
    17     8     7    2
    18    33    31   am
    19    14    12   ar
    20    32    31    2
    21    16    15    2
    22     7     9   am
    23     7     2    1
    24    31    26    1
    25    10     9    1
    26    10    15    1
    27    10    11    1
    28    12    11    1
    29    12    13   ar
    30     2     1    1
    31     2     3    1
    32    15    17   am
    33     5     4    1
    34    26    25    1
    35    26    27    1
    36    24    23    2
    37    28    27    1
    38     4     3    1
    39     4     6    1
    40    17    18    1
    41    23    25   am
    42    23    18    1
    43    27    29    1
    44    18    19    1
    45    29    30    1
    46    19    21    1
    47    19    20    1
    48    22    21    1
