@<TRIPOS>MOLECULE
../1EDN/PCA2_17-21_NOBACKBONE.pdb
 26 23 0 0 0
SMALL
GASTEIGER

@<TRIPOS>ATOM
      1  CB        -5.9860   -1.2020   -0.4580 C.3    17  LEU17       0.0000
      2  CG        -7.1280   -2.2100   -0.5390 C.3    17  LEU17       0.0000
      3  CD1       -6.7120   -3.3620   -1.4700 C.3    17  LEU17       0.0000
      4  CD2       -7.4980   -2.5610    0.9130 C.3    17  LEU17       0.0000
      5  CB        -9.6810    1.0560   -1.6740 C.3    18  ASP18       0.1258
      6  CG       -11.0010    1.6360   -2.1090 C.2    18  ASP18       0.3654
      7  OD1      -11.5960    2.3310   -1.2790 O.co2  18  ASP18      -0.2456
      8  OD2      -11.5460    1.2700   -3.1630 O.co2  18  ASP18      -0.2456
      9  CB        -8.4260    4.8620    1.7600 C.3    19  ILE19       0.0000
     10  CG2       -7.7310    6.0060    2.5190 C.3    19  ILE19       0.0000
     11  CG1       -9.9240    4.5740    2.2500 C.3    19  ILE19       0.0000
     12  CD1      -10.9740    5.6950    2.0110 C.3    19  ILE19       0.0000
     13  CB        -3.5230    4.9310   -0.1080 C.3    20  ILE20       0.0000
     14  CG2       -2.1210    5.5060   -0.7390 C.3    20  ILE20       0.0000
     15  CG1       -3.5940    5.4760    1.3470 C.3    20  ILE20       0.0000
     16  CD1       -2.3570    5.1940    2.2260 C.3    20  ILE20       0.0000
     17  CB        -6.6210    3.8650   -5.0310 C.3    21  TRP21       0.0327
     18  CG        -6.7890    3.3770   -6.4480 C.ar   21  TRP21      -0.0013
     19  CD1       -7.1340    4.1960   -7.4760 C.ar   21  TRP21       0.0946
     20  NE1       -7.1740    3.4060   -8.6160 N.ar   21  TRP21      -0.2442
     21  CE2       -6.9360    2.0750   -8.3350 C.ar   21  TRP21       0.0810
     22  CZ2       -6.8300    1.0510   -9.2060 C.ar   21  TRP21       0.0191
     23  CH2       -6.3330   -0.2010   -8.7710 C.ar   21  TRP21       0.0015
     24  CZ3       -5.9560   -0.2520   -7.3640 C.ar   21  TRP21       0.0001
     25  CE3       -6.0150    0.8940   -6.5860 C.ar   21  TRP21       0.0012
     26  CD2       -6.6320    2.0560   -6.9830 C.ar   21  TRP21       0.0152
@<TRIPOS>BOND
     1    22    23   ar
     2    22    21   ar
     3    23    24   ar
     4    20    21   ar
     5    20    19   ar
     6    21    26   ar
     7    19    18   ar
     8    24    25   ar
     9    26    25   ar
    10    26    18   ar
    11    18    17    1
    12     8     6   ar
    13     6     5    1
    14     6     7   ar
    15     3     2    1
    16    14    13    1
    17     2     1    1
    18     2     4    1
    19    13    15    1
    20    15    16    1
    21     9    11    1
    22     9    10    1
    23    12    11    1
@<TRIPOS>MOLECULE
11672244
 106 111 0 0 0
SMALL
GASTEIGER

@<TRIPOS>ATOM
      1 O          -4.6118    1.4061   -3.2170 O.3     1  LIG11      -0.4607
      2 O          -6.4002   -2.0093    2.6955 O.2     1  LIG11      -0.2968
      3 O          -9.0093    1.5803   -7.4368 O.co2   1  LIG11      -0.5492
      4 O          -7.8961    0.5431   -9.1212 O.co2   1  LIG11      -0.5492
      5 O          -3.2086   -0.0668   -2.1423 O.2     1  LIG11      -0.2456
      6 O          -0.2968    6.3444   -0.2709 O.3     1  LIG11      -0.5067
      7 O          -6.5600    4.5548   -1.0295 O.2     1  LIG11      -0.2705
      8 O          -9.7858    3.6641    2.7425 O.co2   1  LIG11      -0.5452
      9 O         -10.7607    5.5810    1.9657 O.co2   1  LIG11      -0.5452
     10 N          -5.3986    4.5124    1.0037 N.am    1  LIG11      -0.2815
     11 C          -7.0648   -0.7041   -3.7049 C.3     1  LIG11      -0.0160
     12 C          -7.3590    0.1039   -2.3870 C.3     1  LIG11      -0.0256
     13 C          -6.2651    0.2619   -4.7655 C.3     1  LIG11       0.0318
     14 C          -7.8023   -0.7220   -1.0914 C.3     1  LIG11      -0.0243
     15 C          -6.7847   -1.9058   -0.9178 C.3     1  LIG11      -0.0235
     16 C          -6.2401   -1.9769   -3.3771 C.3     1  LIG11      -0.0461
     17 C          -6.9788    1.6268   -4.9035 C.2     1  LIG11      -0.0596
     18 C          -6.5888    2.4860   -6.1239 C.3     1  LIG11      -0.0080
     19 C          -6.7566   -2.7823   -2.1859 C.3     1  LIG11      -0.0483
     20 C          -6.2006   -0.4424   -6.1652 C.3     1  LIG11      -0.0392
     21 C          -8.2273    1.3390   -2.7014 C.3     1  LIG11      -0.0306
     22 C          -6.5992    1.7109   -7.4672 C.3     1  LIG11       0.0167
     23 C          -6.8616   -2.7130    0.4207 C.3     1  LIG11       0.0267
     24 C          -7.6418    0.1989    0.1559 C.3     1  LIG11      -0.0404
     25 C          -5.7243    0.4450   -7.3211 C.3     1  LIG11      -0.0408
     26 C          -8.4059   -1.1837   -4.3470 C.3     1  LIG11      -0.0584
     27 C          -7.8464    2.0551   -3.9635 C.2     1  LIG11      -0.0835
     28 C          -4.7666    0.5449   -4.3564 C.3     1  LIG11       0.1025
     29 C          -9.2775   -1.1851   -1.1484 C.3     1  LIG11      -0.0590
     30 C          -7.2870    3.8666   -6.2399 C.3     1  LIG11      -0.0405
     31 C          -5.9911    2.6084   -8.5756 C.3     1  LIG11      -0.0412
     32 C          -7.8036   -0.5136    1.4928 C.3     1  LIG11       0.0069
     33 C          -6.7616    4.7518   -7.3951 C.3     1  LIG11      -0.0343
     34 C          -6.9305   -1.7405    1.6122 C.2     1  LIG11       0.1392
     35 C          -6.7128    3.9515   -8.7106 C.3     1  LIG11      -0.0470
     36 C          -8.0397   -3.6921    0.5230 C.3     1  LIG11      -0.0528
     37 C          -5.5622   -3.5469    0.5886 C.3     1  LIG11      -0.0528
     38 C          -7.9695    1.2304   -8.0567 C.2     1  LIG11       0.0485
     39 C          -7.7144    5.9506   -7.5738 C.3     1  LIG11      -0.0598
     40 C          -5.3661    5.3131   -7.0524 C.3     1  LIG11      -0.0598
     41 C          -3.7651    1.0180   -2.2431 C.2     1  LIG11       0.3320
     42 C          -3.4785    2.1208   -1.3017 C.2     1  LIG11       0.0231
     43 C          -3.9322    3.3771   -1.4395 C.2     1  LIG11      -0.0460
     44 C          -3.4484    4.4517   -0.5613 C.ar    1  LIG11      -0.0001
     45 C          -4.1077    4.9027    0.5982 C.ar    1  LIG11       0.0411
     46 C          -2.1637    4.9510   -0.8573 C.ar    1  LIG11      -0.0113
     47 C          -3.4379    5.7813    1.4681 C.ar    1  LIG11      -0.0364
     48 C          -1.5407    5.8537   -0.0013 C.ar    1  LIG11       0.1175
     49 C          -2.1641    6.2639    1.1650 C.ar    1  LIG11      -0.0184
     50 C          -6.4975    4.3580    0.1747 C.2     1  LIG11       0.2411
     51 C          -7.6920    4.0544    0.9956 C.2     1  LIG11       0.0021
     52 C          -8.7451    4.8822    0.9992 C.2     1  LIG11      -0.0344
     53 C          -9.8844    4.6720    1.9864 C.2     1  LIG11       0.0647
     54 H          -0.0275    6.0141   -1.1443 H       1  LIG11       0.2921
     55 H          -5.6478    4.6848    1.9712 H       1  LIG11       0.1551
     56 H          -6.3931    0.5136   -2.0822 H       1  LIG11       0.0315
     57 H          -5.7954   -1.4192   -0.8750 H       1  LIG11       0.0315
     58 H          -5.2072   -1.7173   -3.1359 H       1  LIG11       0.0271
     59 H          -6.1877   -2.6360   -4.2520 H       1  LIG11       0.0271
     60 H          -5.5367    2.7371   -5.9252 H       1  LIG11       0.0355
     61 H          -7.7355   -3.2149   -2.4092 H       1  LIG11       0.0269
     62 H          -6.0787   -3.6316   -2.0590 H       1  LIG11       0.0269
     63 H          -7.1809   -0.8216   -6.4630 H       1  LIG11       0.0275
     64 H          -5.5416   -1.3175   -6.1085 H       1  LIG11       0.0275
     65 H          -9.2847    1.0782   -2.7940 H       1  LIG11       0.0310
     66 H          -8.1493    2.0566   -1.8771 H       1  LIG11       0.0310
     67 H          -8.3681    1.0190    0.1173 H       1  LIG11       0.0275
     68 H          -6.6464    0.6632    0.1397 H       1  LIG11       0.0275
     69 H          -5.7257   -0.1547   -8.2403 H       1  LIG11       0.0275
     70 H          -4.6748    0.7251   -7.1759 H       1  LIG11       0.0275
     71 H          -9.0813   -1.6450   -3.6323 H       1  LIG11       0.0235
     72 H          -8.2369   -1.9538   -5.1075 H       1  LIG11       0.0235
     73 H          -8.9601   -0.3692   -4.8228 H       1  LIG11       0.0235
     74 H          -8.3518    3.0099   -4.0793 H       1  LIG11       0.0572
     75 H          -4.2016   -0.3862   -4.2542 H       1  LIG11       0.0706
     76 H          -4.2489    1.0808   -5.1572 H       1  LIG11       0.0706
     77 H          -9.4135   -2.1205   -1.6922 H       1  LIG11       0.0235
     78 H          -9.9337   -0.4387   -1.5998 H       1  LIG11       0.0235
     79 H          -9.7040   -1.3583   -0.1587 H       1  LIG11       0.0235
     80 H          -7.1568    4.4223   -5.3011 H       1  LIG11       0.0276
     81 H          -8.3678    3.7242   -6.3580 H       1  LIG11       0.0276
     82 H          -6.0040    2.1066   -9.5515 H       1  LIG11       0.0274
     83 H          -4.9305    2.7911   -8.3613 H       1  LIG11       0.0274
     84 H          -8.8391   -0.8109    1.6794 H       1  LIG11       0.0342
     85 H          -7.5250    0.1815    2.2939 H       1  LIG11       0.0342
     86 H          -7.7338    3.7712   -9.0711 H       1  LIG11       0.0271
     87 H          -6.2191    4.5433   -9.4919 H       1  LIG11       0.0271
     88 H          -9.0057   -3.1916    0.5945 H       1  LIG11       0.0239
     89 H          -7.9569   -4.3023    1.4314 H       1  LIG11       0.0239
     90 H          -8.0704   -4.3816   -0.3266 H       1  LIG11       0.0239
     91 H          -4.6723   -2.9097    0.5290 H       1  LIG11       0.0239
     92 H          -5.4722   -4.3319   -0.1679 H       1  LIG11       0.0239
     93 H          -5.5293   -4.0519    1.5617 H       1  LIG11       0.0239
     94 H          -8.7293    5.6184   -7.8202 H       1  LIG11       0.0235
     95 H          -7.3755    6.6091   -8.3815 H       1  LIG11       0.0235
     96 H          -7.7747    6.5482   -6.6572 H       1  LIG11       0.0235
     97 H          -4.6199    4.5270   -6.9081 H       1  LIG11       0.0235
     98 H          -5.3973    5.9063   -6.1311 H       1  LIG11       0.0235
     99 H          -5.0002    5.9674   -7.8520 H       1  LIG11       0.0235
    100 H          -2.7933    1.8517   -0.5057 H       1  LIG11       0.0689
    101 H          -4.6107    3.6715   -2.2372 H       1  LIG11       0.0626
    102 H          -1.6539    4.6048   -1.7527 H       1  LIG11       0.0660
    103 H          -3.9239    6.1332    2.3750 H       1  LIG11       0.0637
    104 H          -1.6707    6.9639    1.8323 H       1  LIG11       0.0655
    105 H          -7.6309    3.2080    1.6705 H       1  LIG11       0.0670
    106 H          -8.7889    5.7478    0.3461 H       1  LIG11       0.0637
@<TRIPOS>BOND
     1     1    41    1
     2     1    28    1
     3     2    34    2
     4     3    38   ar
     5     4    38   ar
     6     5    41    2
     7     6    48    1
     8     7    50    2
     9     8    53   ar
    10     9    53   ar
    11    10    45    1
    12    10    50   am
    13    11    16    1
    14    11    12    1
    15    11    26    1
    16    11    13    1
    17    12    14    1
    18    13    20    1
    19    13    17    1
    20    13    28    1
    21    14    15    1
    22    14    24    1
    23    14    29    1
    24    15    19    1
    25    15    23    1
    26    16    19    1
    27    17    18    1
    28    17    27    2
    29    18    30    1
    30    18    22    1
    31    20    25    1
    32    21    27    1
    33    21    12    1
    34    22    31    1
    35    22    25    1
    36    22    38    1
    37    23    34    1
    38    23    37    1
    39    23    36    1
    40    24    32    1
    41    30    33    1
    42    31    35    1
    43    32    34    1
    44    33    35    1
    45    33    40    1
    46    33    39    1
    47    41    42    1
    48    42    43    2
    49    43    44    1
    50    44    46   ar
    51    44    45   ar
    52    45    47   ar
    53    46    48   ar
    54    47    49   ar
    55    48    49   ar
    56    50    51    1
    57    51    52    2
    58    52    53    1
    59     6    54    1
    60    10    55    1
    61    12    56    1
    62    15    57    1
    63    16    58    1
    64    16    59    1
    65    18    60    1
    66    19    61    1
    67    19    62    1
    68    20    63    1
    69    20    64    1
    70    21    65    1
    71    21    66    1
    72    24    67    1
    73    24    68    1
    74    25    69    1
    75    25    70    1
    76    26    71    1
    77    26    72    1
    78    26    73    1
    79    27    74    1
    80    28    75    1
    81    28    76    1
    82    29    77    1
    83    29    78    1
    84    29    79    1
    85    30    80    1
    86    30    81    1
    87    31    82    1
    88    31    83    1
    89    32    84    1
    90    32    85    1
    91    35    86    1
    92    35    87    1
    93    36    88    1
    94    36    89    1
    95    36    90    1
    96    37    91    1
    97    37    92    1
    98    37    93    1
    99    39    94    1
   100    39    95    1
   101    39    96    1
   102    40    97    1
   103    40    98    1
   104    40    99    1
   105    42   100    1
   106    43   101    1
   107    46   102    1
   108    47   103    1
   109    49   104    1
   110    51   105    1
   111    52   106    1
@<TRIPOS>MOLECULE
../1EDN/PCA2_17-21.pdb
 47 48 0 0 0
SMALL
GASTEIGER

@<TRIPOS>ATOM
      1  N         -4.4680    0.3970   -1.5420 N.3    17  LEU17      -0.1231
      2  CA        -5.5730   -0.5090   -1.8150 C.3    17  LEU17       0.1693
      3  CB        -5.9860   -1.2020   -0.4580 C.3    17  LEU17       0.0284
      4  CG        -7.1280   -2.2100   -0.5390 C.3    17  LEU17       0.0019
      5  CD1       -6.7120   -3.3620   -1.4700 C.3    17  LEU17       0.0001
      6  CD2       -7.4980   -2.5610    0.9130 C.3    17  LEU17       0.0001
      7  C         -6.7000    0.2280   -2.5610 C.2    17  LEU17       0.2592
      8  O         -7.1860   -0.2780   -3.5510 O.2    17  LEU17      -0.2718
      9  N         -7.2650    1.2690   -1.9650 N.am   18  ASP18      -0.1960
     10  CA        -8.5260    1.8930   -2.2590 C.3    18  ASP18       0.1840
     11  CB        -9.6810    1.0560   -1.6740 C.3    18  ASP18       0.1450
     12  CG       -11.0010    1.6360   -2.1090 C.2    18  ASP18       0.3671
     13  OD1      -11.5960    2.3310   -1.2790 O.co2  18  ASP18      -0.2456
     14  OD2      -11.5460    1.2700   -3.1630 O.co2  18  ASP18      -0.2456
     15  C         -8.5570    3.3770   -1.7380 C.2    18  ASP18       0.2622
     16  O         -8.6960    4.2620   -2.5680 O.2    18  ASP18      -0.2715
     17  N         -8.4180    3.5730   -0.4160 N.am   19  ILE19      -0.1963
     18  CA        -8.3980    4.9040    0.1930 C.3    19  ILE19       0.1727
     19  CB        -8.4260    4.8620    1.7600 C.3    19  ILE19       0.0290
     20  CG2       -7.7310    6.0060    2.5190 C.3    19  ILE19       0.0023
     21  CG1       -9.9240    4.5740    2.2500 C.3    19  ILE19       0.0022
     22  CD1      -10.9740    5.6950    2.0110 C.3    19  ILE19       0.0001
     23  C         -7.1570    5.7010   -0.3260 C.2    19  ILE19       0.2616
     24  O         -7.3050    6.7970   -0.9200 O.2    19  ILE19      -0.2715
     25  N         -5.9900    5.0720   -0.2260 N.am   20  ILE20      -0.1963
     26  CA        -4.7520    5.3490   -0.9430 C.3    20  ILE20       0.1727
     27  CB        -3.5230    4.9310   -0.1080 C.3    20  ILE20       0.0290
     28  CG2       -2.1210    5.5060   -0.7390 C.3    20  ILE20       0.0023
     29  CG1       -3.5940    5.4760    1.3470 C.3    20  ILE20       0.0022
     30  CD1       -2.3570    5.1940    2.2260 C.3    20  ILE20       0.0001
     31  C         -4.7590    4.7050   -2.3650 C.2    20  ILE20       0.2617
     32  O         -4.2060    3.6200   -2.5900 O.2    20  ILE20      -0.2715
     33  N         -5.4060    5.3330   -3.3880 N.am   21  TRP21      -0.1938
     34  CA        -5.3950    4.7680   -4.7850 C.3    21  TRP21       0.2021
     35  CB        -6.6210    3.8650   -5.0310 C.3    21  TRP21       0.0612
     36  CG        -6.7890    3.3770   -6.4480 C.ar   21  TRP21       0.0007
     37  CD1       -7.1340    4.1960   -7.4760 C.ar   21  TRP21       0.0946
     38  NE1       -7.1740    3.4060   -8.6160 N.ar   21  TRP21      -0.2442
     39  CE2       -6.9360    2.0750   -8.3350 C.ar   21  TRP21       0.0810
     40  CZ2       -6.8300    1.0510   -9.2060 C.ar   21  TRP21       0.0191
     41  CH2       -6.3330   -0.2010   -8.7710 C.ar   21  TRP21       0.0015
     42  CZ3       -5.9560   -0.2520   -7.3640 C.ar   21  TRP21       0.0001
     43  CE3       -6.0150    0.8940   -6.5860 C.ar   21  TRP21       0.0012
     44  CD2       -6.6320    2.0560   -6.9830 C.ar   21  TRP21       0.0152
     45  C         -5.1960    5.8550   -5.8260 C.2    21  TRP21       0.3845
     46  O         -4.1840    5.6720   -6.5070 O.co2  21  TRP21      -0.2437
     47  OXT       -5.9640    6.8330   -6.0170 O.co2  21  TRP21      -0.2437
@<TRIPOS>BOND
     1    40    41   ar
     2    40    39   ar
     3    41    42   ar
     4    38    39   ar
     5    38    37   ar
     6    39    44   ar
     7    37    36   ar
     8    42    43   ar
     9    44    43   ar
    10    44    36   ar
    11    46    45   ar
    12    36    35    1
    13    47    45   ar
    14    45    34    1
    15    35    34    1
    16    34    33    1
    17     8     7    2
    18    33    31   am
    19    14    12   ar
    20    32    31    2
    21    16    15    2
    22     7     9   am
    23     7     2    1
    24    31    26    1
    25    10     9    1
    26    10    15    1
    27    10    11    1
    28    12    11    1
    29    12    13   ar
    30     2     1    1
    31     2     3    1
    32    15    17   am
    33     5     4    1
    34    26    25    1
    35    26    27    1
    36    24    23    2
    37    28    27    1
    38     4     3    1
    39     4     6    1
    40    17    18    1
    41    23    25   am
    42    23    18    1
    43    27    29    1
    44    18    19    1
    45    29    30    1
    46    19    21    1
    47    19    20    1
    48    22    21    1
