@<TRIPOS>MOLECULE
../1EDN/PCA3_17-21_NOBACKBONE.pdb
 26 23 0 0 0
SMALL
GASTEIGER

@<TRIPOS>ATOM
      1  CB        -5.7360   -1.8160   -1.1010 C.3    17  LEU17       0.0000
      2  CG        -6.9950   -2.5690   -1.5730 C.3    17  LEU17       0.0000
      3  CD1       -6.7530   -3.1800   -3.0080 C.3    17  LEU17       0.0000
      4  CD2       -7.2580   -3.7400   -0.6960 C.3    17  LEU17       0.0000
      5  CB        -9.1090    1.3410    0.3760 C.3    18  ASP18       0.1258
      6  CG       -10.1470    2.2990    0.9520 C.2    18  ASP18       0.3654
      7  OD1      -11.0720    2.5310    0.1500 O.co2  18  ASP18      -0.2456
      8  OD2      -10.1960    2.6850    2.1610 O.co2  18  ASP18      -0.2456
      9  CB        -5.3140    3.8890    3.0670 C.3    19  ILE19       0.0000
     10  CG2       -4.6600    5.0630    3.8540 C.3    19  ILE19       0.0000
     11  CG1       -6.1440    2.9790    3.9890 C.3    19  ILE19       0.0000
     12  CD1       -5.5170    2.2940    5.2130 C.3    19  ILE19       0.0000
     13  CB        -2.4460    5.7340   -1.0120 C.3    20  ILE20       0.0000
     14  CG2       -2.3030    7.0110   -0.1100 C.3    20  ILE20       0.0000
     15  CG1       -1.4300    4.6170   -0.6100 C.3    20  ILE20       0.0000
     16  CD1        0.0800    4.9990   -0.7110 C.3    20  ILE20       0.0000
     17  CB        -6.2680    3.7450   -4.8170 C.3    21  TRP21       0.0327
     18  CG        -6.5090    2.9660   -6.0890 C.ar   21  TRP21      -0.0013
     19  CD1       -7.0550    3.4090   -7.2190 C.ar   21  TRP21       0.0946
     20  NE1       -7.1560    2.4190   -8.1260 N.ar   21  TRP21      -0.2442
     21  CE2       -6.6880    1.2600   -7.6470 C.ar   21  TRP21       0.0810
     22  CZ2       -6.5320   -0.1050   -8.0600 C.ar   21  TRP21       0.0191
     23  CH2       -5.9630   -1.0770   -7.2340 C.ar   21  TRP21       0.0015
     24  CZ3       -5.4330   -0.7150   -5.9030 C.ar   21  TRP21       0.0001
     25  CE3       -5.5290    0.6400   -5.5430 C.ar   21  TRP21       0.0012
     26  CD2       -6.2440    1.5830   -6.3190 C.ar   21  TRP21       0.0152
@<TRIPOS>BOND
     1    20    21   ar
     2    20    19   ar
     3    22    21   ar
     4    22    23   ar
     5    21    26   ar
     6    23    24   ar
     7    19    18   ar
     8    26    18   ar
     9    26    25   ar
    10    18    17    1
    11    24    25   ar
    12     3     2    1
    13     2     1    1
    14     2     4    1
    15    13    15    1
    16    13    14    1
    17    16    15    1
    18     7     6   ar
    19     5     6    1
    20     6     8   ar
    21     9    10    1
    22     9    11    1
    23    11    12    1
@<TRIPOS>MOLECULE
177236
 51 53 0 0 0
SMALL
GASTEIGER

@<TRIPOS>ATOM
      1 O          -3.2877   -2.0016   -2.0145 O.3     1  LIG11      -0.3632
      2 O          -5.2943    0.5188   -4.0318 O.3     1  LIG11      -0.4494
      3 O          -2.8631    0.7540   -5.3547 O.co2   1  LIG11      -0.5459
      4 O          -1.8678    0.0307   -3.4591 O.co2   1  LIG11      -0.5459
      5 O          -6.0946   -1.4972   -8.1908 O.3     1  LIG11      -0.4794
      6 O          -7.1506    3.0082   -7.5045 O.3     1  LIG11      -0.4794
      7 N          -5.6916   -0.5258   -6.0897 N.ar    1  LIG11      -0.1594
      8 N          -6.2033    1.7707   -5.7327 N.ar    1  LIG11      -0.1594
      9 C          -4.3487   -1.0470   -2.3356 C.3     1  LIG11       0.1609
     10 C          -4.2246   -0.4503   -3.7870 C.3     1  LIG11       0.1791
     11 C          -4.2744    0.0872   -1.2718 C.ar    1  LIG11      -0.0075
     12 C          -5.6471   -1.8993   -2.0681 C.ar    1  LIG11      -0.0075
     13 C          -3.0624    0.4009   -0.6319 C.ar    1  LIG11      -0.0554
     14 C          -5.6985   -2.7258   -0.9213 C.ar    1  LIG11      -0.0554
     15 C          -5.4060    0.8521   -0.9252 C.ar    1  LIG11      -0.0554
     16 C          -6.7837   -1.8887   -2.8924 C.ar    1  LIG11      -0.0554
     17 C          -2.8662    0.1953   -4.2132 C.2     1  LIG11       0.0856
     18 C          -2.9691   -2.9603   -3.0107 C.3     1  LIG11       0.0382
     19 C          -2.9848    1.4166    0.3249 C.ar    1  LIG11      -0.0614
     20 C          -6.8162   -3.5126   -0.6294 C.ar    1  LIG11      -0.0614
     21 C          -5.3322    1.8625    0.0385 C.ar    1  LIG11      -0.0614
     22 C          -7.9124   -2.6603   -2.5902 C.ar    1  LIG11      -0.0614
     23 C          -4.1219    2.1429    0.6652 C.ar    1  LIG11      -0.0617
     24 C          -7.9271   -3.4781   -1.4649 C.ar    1  LIG11      -0.0617
     25 C          -5.6686    0.6007   -5.3584 C.ar    1  LIG11       0.3249
     26 C          -6.1050   -0.3960   -7.3535 C.ar    1  LIG11       0.2240
     27 C          -6.6200    1.8297   -7.0077 C.ar    1  LIG11       0.2240
     28 C          -6.5937    0.7700   -7.8791 C.ar    1  LIG11       0.0617
     29 C          -5.3588   -2.5865   -7.6380 C.3     1  LIG11       0.0804
     30 C          -7.0362    4.0898   -6.5854 C.3     1  LIG11       0.0804
     31 H          -4.3331   -1.3071   -4.4639 H       1  LIG11       0.0834
     32 H          -2.1538   -0.1343   -0.9074 H       1  LIG11       0.0621
     33 H          -4.8429   -2.7602   -0.2495 H       1  LIG11       0.0621
     34 H          -6.3600    0.6690   -1.4147 H       1  LIG11       0.0621
     35 H          -6.8329   -1.2761   -3.7818 H       1  LIG11       0.0621
     36 H          -2.3101   -3.7062   -2.5564 H       1  LIG11       0.0524
     37 H          -3.8598   -3.4777   -3.3786 H       1  LIG11       0.0524
     38 H          -2.4254   -2.5107   -3.8442 H       1  LIG11       0.0524
     39 H          -2.0266    1.6442    0.7829 H       1  LIG11       0.0618
     40 H          -6.8127   -4.1482    0.2522 H       1  LIG11       0.0618
     41 H          -6.2200    2.4358    0.2849 H       1  LIG11       0.0618
     42 H          -8.7786   -2.6162   -3.2436 H       1  LIG11       0.0618
     43 H          -4.0584    2.9372    1.4019 H       1  LIG11       0.0618
     44 H          -8.8017   -4.0795   -1.2384 H       1  LIG11       0.0618
     45 H          -6.9349    0.8491   -8.8981 H       1  LIG11       0.0724
     46 H          -5.3218   -3.3805   -8.3913 H       1  LIG11       0.0660
     47 H          -4.3261   -2.2996   -7.4077 H       1  LIG11       0.0660
     48 H          -5.8612   -2.9938   -6.7527 H       1  LIG11       0.0660
     49 H          -7.4297    4.9853   -7.0774 H       1  LIG11       0.0660
     50 H          -7.6404    3.9124   -5.6888 H       1  LIG11       0.0660
     51 H          -5.9897    4.2872   -6.3254 H       1  LIG11       0.0660
@<TRIPOS>BOND
     1     1     9    1
     2     1    18    1
     3     2    10    1
     4     2    25    1
     5     3    17   ar
     6     4    17   ar
     7     5    26    1
     8     5    29    1
     9     6    27    1
    10     6    30    1
    11     7    25   ar
    12     7    26   ar
    13     8    25   ar
    14     8    27   ar
    15     9    10    1
    16     9    11    1
    17     9    12    1
    18    10    17    1
    19    11    13   ar
    20    11    15   ar
    21    12    14   ar
    22    12    16   ar
    23    13    19   ar
    24    14    20   ar
    25    15    21   ar
    26    16    22   ar
    27    19    23   ar
    28    20    24   ar
    29    21    23   ar
    30    22    24   ar
    31    26    28   ar
    32    27    28   ar
    33    10    31    1
    34    13    32    1
    35    14    33    1
    36    15    34    1
    37    16    35    1
    38    18    36    1
    39    18    37    1
    40    18    38    1
    41    19    39    1
    42    20    40    1
    43    21    41    1
    44    22    42    1
    45    23    43    1
    46    24    44    1
    47    28    45    1
    48    29    46    1
    49    29    47    1
    50    29    48    1
    51    30    49    1
    52    30    50    1
    53    30    51    1
@<TRIPOS>MOLECULE
../1EDN/PCA3_17-21.pdb
 47 48 0 0 0
SMALL
GASTEIGER

@<TRIPOS>ATOM
      1  N         -4.2370    0.0490   -1.5930 N.3    17  LEU17      -0.1231
      2  CA        -5.5250   -0.5610   -1.9200 C.3    17  LEU17       0.1693
      3  CB        -5.7360   -1.8160   -1.1010 C.3    17  LEU17       0.0284
      4  CG        -6.9950   -2.5690   -1.5730 C.3    17  LEU17       0.0019
      5  CD1       -6.7530   -3.1800   -3.0080 C.3    17  LEU17       0.0001
      6  CD2       -7.2580   -3.7400   -0.6960 C.3    17  LEU17       0.0001
      7  C         -6.6810    0.4320   -1.9250 C.2    17  LEU17       0.2592
      8  O         -7.3270    0.6200   -2.9560 O.2    17  LEU17      -0.2718
      9  N         -6.9500    1.1080   -0.7900 N.am   18  ASP18      -0.1960
     10  CA        -8.0880    2.0070   -0.5710 C.3    18  ASP18       0.1840
     11  CB        -9.1090    1.3410    0.3760 C.3    18  ASP18       0.1450
     12  CG       -10.1470    2.2990    0.9520 C.2    18  ASP18       0.3671
     13  OD1      -11.0720    2.5310    0.1500 O.co2  18  ASP18      -0.2456
     14  OD2      -10.1960    2.6850    2.1610 O.co2  18  ASP18      -0.2456
     15  C         -7.6280    3.3500    0.0060 C.2    18  ASP18       0.2622
     16  O         -7.9950    4.4650   -0.3580 O.2    18  ASP18      -0.2715
     17  N         -6.8140    3.2050    1.0390 N.am   19  ILE19      -0.1963
     18  CA        -6.1800    4.3790    1.8160 C.3    19  ILE19       0.1727
     19  CB        -5.3140    3.8890    3.0670 C.3    19  ILE19       0.0290
     20  CG2       -4.6600    5.0630    3.8540 C.3    19  ILE19       0.0023
     21  CG1       -6.1440    2.9790    3.9890 C.3    19  ILE19       0.0022
     22  CD1       -5.5170    2.2940    5.2130 C.3    19  ILE19       0.0001
     23  C         -5.2670    5.2520    0.8640 C.2    19  ILE19       0.2616
     24  O         -5.3920    6.4650    0.9090 O.2    19  ILE19      -0.2715
     25  N         -4.4890    4.6060    0.0020 N.am   20  ILE20      -0.1963
     26  CA        -3.9690    5.2910   -1.1850 C.3    20  ILE20       0.1727
     27  CB        -2.4460    5.7340   -1.0120 C.3    20  ILE20       0.0290
     28  CG2       -2.3030    7.0110   -0.1100 C.3    20  ILE20       0.0023
     29  CG1       -1.4300    4.6170   -0.6100 C.3    20  ILE20       0.0022
     30  CD1        0.0800    4.9990   -0.7110 C.3    20  ILE20       0.0001
     31  C         -4.1660    4.3690   -2.4130 C.2    20  ILE20       0.2617
     32  O         -3.9200    3.1710   -2.5010 O.2    20  ILE20      -0.2715
     33  N         -4.6410    5.0460   -3.5090 N.am   21  TRP21      -0.1938
     34  CA        -4.8980    4.4430   -4.8120 C.3    21  TRP21       0.2021
     35  CB        -6.2680    3.7450   -4.8170 C.3    21  TRP21       0.0612
     36  CG        -6.5090    2.9660   -6.0890 C.ar   21  TRP21       0.0007
     37  CD1       -7.0550    3.4090   -7.2190 C.ar   21  TRP21       0.0946
     38  NE1       -7.1560    2.4190   -8.1260 N.ar   21  TRP21      -0.2442
     39  CE2       -6.6880    1.2600   -7.6470 C.ar   21  TRP21       0.0810
     40  CZ2       -6.5320   -0.1050   -8.0600 C.ar   21  TRP21       0.0191
     41  CH2       -5.9630   -1.0770   -7.2340 C.ar   21  TRP21       0.0015
     42  CZ3       -5.4330   -0.7150   -5.9030 C.ar   21  TRP21       0.0001
     43  CE3       -5.5290    0.6400   -5.5430 C.ar   21  TRP21       0.0012
     44  CD2       -6.2440    1.5830   -6.3190 C.ar   21  TRP21       0.0152
     45  C         -4.7460    5.5030   -5.9410 C.2    21  TRP21       0.3845
     46  O         -5.6740    6.3580   -6.0770 O.co2  21  TRP21      -0.2437
     47  OXT       -3.7150    5.4030   -6.6310 O.co2  21  TRP21      -0.2437
@<TRIPOS>BOND
     1    38    39   ar
     2    38    37   ar
     3    40    39   ar
     4    40    41   ar
     5    39    44   ar
     6    41    42   ar
     7    37    36   ar
     8    47    45   ar
     9    44    36   ar
    10    44    43   ar
    11    36    35    1
    12    46    45   ar
    13    45    34    1
    14    42    43   ar
    15    35    34    1
    16    34    33    1
    17    33    31   am
    18     5     4    1
    19     8     7    2
    20    32    31    2
    21    31    26    1
    22     7     2    1
    23     7     9   am
    24     2     1    1
    25     2     3    1
    26     4     3    1
    27     4     6    1
    28    26    27    1
    29    26    25    1
    30    27    29    1
    31    27    28    1
    32     9    10    1
    33    30    29    1
    34    10    15    1
    35    10    11    1
    36    16    15    2
    37    25    23   am
    38    15    17   am
    39    13    12   ar
    40    11    12    1
    41    23    24    2
    42    23    18    1
    43    12    14   ar
    44    17    18    1
    45    18    19    1
    46    19    20    1
    47    19    21    1
    48    21    22    1
