@<TRIPOS>MOLECULE
../1EDN/XRAY_17-21_NOBACKBONE.pdb
 26 23 0 0 0
SMALL
GASTEIGER

@<TRIPOS>ATOM
      1  CB         5.6570  -21.0170   -0.8850 C.3    17  LEU17       0.0000
      2  CG         5.4050  -22.5400   -0.8470 C.3    17  LEU17       0.0000
      3  CD1        6.1110  -23.2140    0.3150 C.3    17  LEU17       0.0000
      4  CD2        3.9240  -22.7940   -0.7690 C.3    17  LEU17       0.0000
      5  CB         3.8720  -17.2370    1.5730 C.3    18  ASP18       0.0476
      6  CG         2.4440  -17.7210    1.8880 C.2    18  ASP18       0.0507
      7  OD1        1.8320  -18.4410    1.0660 O.co2  18  ASP18      -0.5492
      8  OD2        1.9260  -17.3730    2.9700 O.co2  18  ASP18      -0.5492
      9  CB         7.9140  -14.3690   -1.8400 C.3    19  ILE19       0.0000
     10  CG1        8.8760  -14.8240   -0.7490 C.3    19  ILE19       0.0000
     11  CG2        8.2810  -12.9320   -2.2380 C.3    19  ILE19       0.0000
     12  CD1        9.3280  -13.7050    0.1860 C.3    19  ILE19       0.0000
     13  CB         5.8140  -13.8870   -5.9550 C.3    20  ILE20       0.0000
     14  CG1        5.9530  -12.3980   -5.6400 C.3    20  ILE20       0.0000
     15  CG2        5.1640  -14.0490   -7.3150 C.3    20  ILE20       0.0000
     16  CD1        6.8340  -11.6390   -6.6010 C.3    20  ILE20       0.0000
     17  CB         2.6690  -18.5180   -5.3120 C.3    21  TRP21       0.0327
     18  CG         1.5690  -17.9980   -4.3600 C.ar   21  TRP21      -0.0013
     19  CD1        0.7990  -18.7930   -3.5490 C.ar   21  TRP21       0.0946
     20  CD2        1.2480  -16.6350   -3.9890 C.ar   21  TRP21       0.0152
     21  CE2        0.3020  -16.7070   -2.9250 C.ar   21  TRP21       0.0810
     22  CE3        1.6680  -15.3700   -4.4360 C.ar   21  TRP21       0.0012
     23  NE1        0.0520  -18.0350   -2.6840 N.ar   21  TRP21      -0.2442
     24  CZ2       -0.2230  -15.5590   -2.2950 C.ar   21  TRP21       0.0191
     25  CZ3        1.1420  -14.2140   -3.8060 C.ar   21  TRP21       0.0001
     26  CH2        0.2070  -14.3240   -2.7450 C.ar   21  TRP21       0.0015
@<TRIPOS>BOND
     1    15    13    1
     2    16    14    1
     3    13    14    1
     4    17    18    1
     5    22    20   ar
     6    22    25   ar
     7    18    20   ar
     8    18    19   ar
     9    20    21   ar
    10    25    26   ar
    11    19    23   ar
    12    21    23   ar
    13    21    24   ar
    14    26    24   ar
    15    11     9    1
    16     9    10    1
    17     1     2    1
    18     2     4    1
    19     2     3    1
    20    10    12    1
    21     7     6   ar
    22     5     6    1
    23     6     8   ar
@<TRIPOS>MOLECULE
159594
 75 78 0 0 0
SMALL
GASTEIGER

@<TRIPOS>ATOM
      1 O           2.0855  -18.3986   -4.7964 O.co2   1  LIG11      -0.5493
      2 O          -0.0706  -18.4826   -4.0410 O.co2   1  LIG11      -0.5493
      3 O           1.5812  -18.3405    2.2750 O.3     1  LIG11      -0.4526
      4 O           4.2361  -12.6480   -3.0046 O.2     1  LIG11      -0.2697
      5 O           3.6602  -17.5345    3.1932 O.3     1  LIG11      -0.4526
      6 O          -2.8277  -12.1717   -3.1922 O.3     1  LIG11      -0.4951
      7 N           2.7883  -15.2034   -3.4623 N.4     1  LIG11       0.2481
      8 N           5.7003  -13.5593   -4.5352 N.am    1  LIG11      -0.2971
      9 C           1.4766  -17.1290   -2.9218 C.3     1  LIG11       0.0574
     10 C           2.9207  -17.3621   -2.4249 C.3     1  LIG11       0.0378
     11 C           1.4657  -15.8755   -3.7985 C.3     1  LIG11       0.0143
     12 C           3.7214  -16.3695   -3.2764 C.3     1  LIG11      -0.0230
     13 C           3.1206  -17.2666   -0.9083 C.ar    1  LIG11      -0.0347
     14 C           0.2908  -14.9345   -3.6108 C.ar    1  LIG11       0.0011
     15 C           3.2459  -14.2025   -4.4960 C.3     1  LIG11       0.0468
     16 C           1.1344  -18.1292   -4.0083 C.2     1  LIG11       0.0513
     17 C           2.1504  -17.8037   -0.0363 C.ar    1  LIG11      -0.0125
     18 C           4.4361  -13.3825   -3.9775 C.2     1  LIG11       0.2608
     19 C           4.3454  -16.8284   -0.3396 C.ar    1  LIG11      -0.0544
     20 C          -0.5149  -14.6307   -4.7225 C.ar    1  LIG11      -0.0498
     21 C          -0.0106  -14.3269   -2.3862 C.ar    1  LIG11      -0.0498
     22 C           2.4099  -17.8370    1.3209 C.ar    1  LIG11       0.1665
     23 C           4.5797  -16.8695    1.0418 C.ar    1  LIG11      -0.0159
     24 C           3.5911  -17.3805    1.8459 C.ar    1  LIG11       0.1662
     25 C          -1.5679  -13.7161   -4.6276 C.ar    1  LIG11      -0.0195
     26 C          -1.0674  -13.4135   -2.2953 C.ar    1  LIG11      -0.0195
     27 C           5.9403  -14.3111   -5.7762 C.3     1  LIG11       0.0148
     28 C           6.8025  -12.7033   -4.0639 C.3     1  LIG11       0.0148
     29 C          -1.8411  -13.0928   -3.4144 C.ar    1  LIG11       0.1201
     30 C           5.4984  -13.5707   -7.0452 C.3     1  LIG11      -0.0374
     31 C           7.1323  -12.7709   -2.5666 C.3     1  LIG11      -0.0374
     32 C           2.3932  -18.1740    3.4559 C.3     1  LIG11       0.2332
     33 C           6.3693  -12.3807   -7.4568 C.3     1  LIG11      -0.0545
     34 C           7.3747  -14.1863   -2.0475 C.3     1  LIG11      -0.0545
     35 C           7.7866  -12.7712   -7.8454 C.3     1  LIG11      -0.0652
     36 C           7.6632  -14.1787   -0.5528 C.3     1  LIG11      -0.0652
     37 C          -3.5830  -11.7558   -4.3251 C.3     1  LIG11       0.0788
     38 H           2.6883  -14.7063   -2.5676 H       1  LIG11       0.2045
     39 H           0.7082  -17.1179   -2.1445 H       1  LIG11       0.0427
     40 H           3.2722  -18.3761   -2.6608 H       1  LIG11       0.0409
     41 H           1.5454  -16.0797   -4.8759 H       1  LIG11       0.0911
     42 H           3.9436  -16.7723   -4.2712 H       1  LIG11       0.0821
     43 H           4.6464  -15.9923   -2.8470 H       1  LIG11       0.0821
     44 H           3.4230  -14.7367   -5.4281 H       1  LIG11       0.0913
     45 H           2.4246  -13.4981   -4.6616 H       1  LIG11       0.0913
     46 H           1.2247  -18.2417   -0.3985 H       1  LIG11       0.0658
     47 H           5.1758  -16.4931   -0.9530 H       1  LIG11       0.0622
     48 H          -0.3408  -15.1197   -5.6818 H       1  LIG11       0.0623
     49 H           0.5556  -14.5575   -1.4867 H       1  LIG11       0.0623
     50 H           5.5257  -16.5456    1.4619 H       1  LIG11       0.0655
     51 H          -2.1589  -13.5273   -5.5175 H       1  LIG11       0.0654
     52 H          -1.2960  -12.9474   -1.3386 H       1  LIG11       0.0654
     53 H           6.9939  -14.6066   -5.8237 H       1  LIG11       0.0464
     54 H           5.3872  -15.2532   -5.7095 H       1  LIG11       0.0464
     55 H           7.7107  -12.9640   -4.6178 H       1  LIG11       0.0464
     56 H           6.5478  -11.6693   -4.3240 H       1  LIG11       0.0464
     57 H           5.4808  -14.2893   -7.8745 H       1  LIG11       0.0280
     58 H           4.4697  -13.2112   -6.9267 H       1  LIG11       0.0280
     59 H           8.0315  -12.1666   -2.3919 H       1  LIG11       0.0280
     60 H           6.3410  -12.2961   -1.9783 H       1  LIG11       0.0280
     61 H           1.8389  -17.5681    4.1814 H       1  LIG11       0.1166
     62 H           2.5828  -19.1614    3.8937 H       1  LIG11       0.1166
     63 H           5.8990  -11.8966   -8.3219 H       1  LIG11       0.0263
     64 H           6.3960  -11.6284   -6.6630 H       1  LIG11       0.0263
     65 H           6.4964  -14.8098   -2.2275 H       1  LIG11       0.0263
     66 H           8.2155  -14.6437   -2.5807 H       1  LIG11       0.0263
     67 H           7.7818  -13.5251   -8.6388 H       1  LIG11       0.0230
     68 H           8.3285  -11.8949   -8.2157 H       1  LIG11       0.0230
     69 H           8.3451  -13.1695   -6.9943 H       1  LIG11       0.0230
     70 H           6.8320  -13.7339    0.0040 H       1  LIG11       0.0230
     71 H           7.8068  -15.1993   -0.1874 H       1  LIG11       0.0230
     72 H           8.5695  -13.6052   -0.3310 H       1  LIG11       0.0230
     73 H          -4.2988  -10.9995   -3.9923 H       1  LIG11       0.0660
     74 H          -2.9384  -11.2937   -5.0806 H       1  LIG11       0.0660
     75 H          -4.1526  -12.5903   -4.7489 H       1  LIG11       0.0660
@<TRIPOS>BOND
     1     1    16   ar
     2     2    16   ar
     3     3    22    1
     4     3    32    1
     5     4    18    2
     6     5    24    1
     7     5    32    1
     8     6    29    1
     9     6    37    1
    10     7    11    1
    11     7    12    1
    12     7    15    1
    13     8    18   am
    14     8    27    1
    15     8    28    1
    16     9    10    1
    17     9    11    1
    18     9    16    1
    19    10    12    1
    20    10    13    1
    21    11    14    1
    22    13    17   ar
    23    13    19   ar
    24    14    20   ar
    25    14    21   ar
    26    15    18    1
    27    17    22   ar
    28    19    23   ar
    29    20    25   ar
    30    21    26   ar
    31    22    24   ar
    32    23    24   ar
    33    25    29   ar
    34    26    29   ar
    35    27    30    1
    36    28    31    1
    37    30    33    1
    38    31    34    1
    39    33    35    1
    40    34    36    1
    41     7    38    1
    42     9    39    1
    43    10    40    1
    44    11    41    1
    45    12    42    1
    46    12    43    1
    47    15    44    1
    48    15    45    1
    49    17    46    1
    50    19    47    1
    51    20    48    1
    52    21    49    1
    53    23    50    1
    54    25    51    1
    55    26    52    1
    56    27    53    1
    57    27    54    1
    58    28    55    1
    59    28    56    1
    60    30    57    1
    61    30    58    1
    62    31    59    1
    63    31    60    1
    64    32    61    1
    65    32    62    1
    66    33    63    1
    67    33    64    1
    68    34    65    1
    69    34    66    1
    70    35    67    1
    71    35    68    1
    72    35    69    1
    73    36    70    1
    74    36    71    1
    75    36    72    1
    76    37    73    1
    77    37    74    1
    78    37    75    1
@<TRIPOS>MOLECULE
../1EDN/XRAY_17-21.pdb
 47 48 0 0 0
SMALL
GASTEIGER

@<TRIPOS>ATOM
      1  N          6.4500  -19.7300   -2.8460 N.3    17  LEU17      -0.1231
      2  CA         5.2640  -20.1680   -2.1160 C.3    17  LEU17       0.1693
      3  C          4.7010  -18.8060   -1.6720 C.2    17  LEU17       0.2592
      4  O          4.3760  -17.9800   -2.5270 O.2    17  LEU17      -0.2718
      5  CB         5.6570  -21.0170   -0.8850 C.3    17  LEU17       0.0284
      6  CG         5.4050  -22.5400   -0.8470 C.3    17  LEU17       0.0019
      7  CD1        6.1110  -23.2140    0.3150 C.3    17  LEU17       0.0001
      8  CD2        3.9240  -22.7940   -0.7690 C.3    17  LEU17       0.0001
      9  N          4.7270  -18.4910   -0.3800 N.am   18  ASP18      -0.1962
     10  CA         4.1720  -17.2010    0.0630 C.3    18  ASP18       0.1783
     11  C          4.7750  -15.8130   -0.3500 C.2    18  ASP18       0.2620
     12  O          4.1570  -14.7710   -0.0750 O.2    18  ASP18      -0.2715
     13  CB         3.8720  -17.2370    1.5730 C.3    18  ASP18       0.0728
     14  CG         2.4440  -17.7210    1.8880 C.2    18  ASP18       0.0526
     15  OD1        1.8320  -18.4410    1.0660 O.co2  18  ASP18      -0.5491
     16  OD2        1.9260  -17.3730    2.9700 O.co2  18  ASP18      -0.5491
     17  N          5.9570  -15.7420   -0.9630 N.am   19  ILE19      -0.1963
     18  CA         6.4450  -14.4030   -1.3510 C.3    19  ILE19       0.1727
     19  C          5.5760  -13.9960   -2.5290 C.2    19  ILE19       0.2616
     20  O          4.8370  -13.0080   -2.4770 O.2    19  ILE19      -0.2715
     21  CB         7.9140  -14.3690   -1.8400 C.3    19  ILE19       0.0290
     22  CG1        8.8760  -14.8240   -0.7490 C.3    19  ILE19       0.0022
     23  CG2        8.2810  -12.9320   -2.2380 C.3    19  ILE19       0.0023
     24  CD1        9.3280  -13.7050    0.1860 C.3    19  ILE19       0.0001
     25  N          5.7170  -14.7750   -3.5990 N.am   20  ILE20      -0.1963
     26  CA         4.9770  -14.6140   -4.8450 C.3    20  ILE20       0.1727
     27  C          4.7560  -16.0550   -5.2510 C.2    20  ILE20       0.2615
     28  O          5.5820  -16.9240   -4.9410 O.2    20  ILE20      -0.2715
     29  CB         5.8140  -13.8870   -5.9550 C.3    20  ILE20       0.0290
     30  CG1        5.9530  -12.3980   -5.6400 C.3    20  ILE20       0.0022
     31  CG2        5.1640  -14.0490   -7.3150 C.3    20  ILE20       0.0023
     32  CD1        6.8340  -11.6390   -6.6010 C.3    20  ILE20       0.0001
     33  N          3.6520  -16.3070   -5.9350 N.am   21  TRP21      -0.1988
     34  CA         3.3300  -17.6370   -6.4010 C.3    21  TRP21       0.1456
     35  C          2.5650  -17.6270   -7.7180 C.2    21  TRP21       0.1166
     36  O          1.8980  -18.6320   -8.0750 O.co2  21  TRP21      -0.3065
     37  CB         2.6690  -18.5180   -5.3120 C.3    21  TRP21       0.0562
     38  CG         1.5690  -17.9980   -4.3600 C.ar   21  TRP21       0.0005
     39  CD1        0.7990  -18.7930   -3.5490 C.ar   21  TRP21       0.0946
     40  CD2        1.2480  -16.6350   -3.9890 C.ar   21  TRP21       0.0152
     41  CE2        0.3020  -16.7070   -2.9250 C.ar   21  TRP21       0.0810
     42  CE3        1.6680  -15.3700   -4.4360 C.ar   21  TRP21       0.0012
     43  NE1        0.0520  -18.0350   -2.6840 N.ar   21  TRP21      -0.2442
     44  CZ2       -0.2230  -15.5590   -2.2950 C.ar   21  TRP21       0.0191
     45  CZ3        1.1420  -14.2140   -3.8060 C.ar   21  TRP21       0.0001
     46  CH2        0.2070  -14.3240   -2.7450 C.ar   21  TRP21       0.0015
     47  OXT        2.7400  -16.6140   -8.4280 O.co2  21  TRP21      -0.8460
@<TRIPOS>BOND
     1    47    35   ar
     2    36    35   ar
     3    35    34    1
     4    31    29    1
     5    32    30    1
     6    34    33    1
     7    34    37    1
     8    29    30    1
     9    29    26    1
    10    33    27   am
    11    37    38    1
    12    27    28    2
    13    27    26    1
    14    26    25    1
    15    42    40   ar
    16    42    45   ar
    17    38    40   ar
    18    38    39   ar
    19    40    41   ar
    20    45    46   ar
    21    25    19   am
    22    39    43   ar
    23    41    43   ar
    24    41    44   ar
    25     1     2    1
    26    46    44   ar
    27    19    20    2
    28    19    18    1
    29     4     3    2
    30    23    21    1
    31     2     3    1
    32     2     5    1
    33    21    18    1
    34    21    22    1
    35     3     9   am
    36    18    17    1
    37    17    11   am
    38     5     6    1
    39     6     8    1
    40     6     7    1
    41    22    24    1
    42     9    10    1
    43    11    12    2
    44    11    10    1
    45    10    13    1
    46    15    14   ar
    47    13    14    1
    48    14    16   ar
