@<TRIPOS>MOLECULE
../1EDN/XRAY_17-21_NOBACKBONE.pdb
 26 23 0 0 0
SMALL
GASTEIGER

@<TRIPOS>ATOM
      1  CB         5.6570  -21.0170   -0.8850 C.3    17  LEU17       0.0000
      2  CG         5.4050  -22.5400   -0.8470 C.3    17  LEU17       0.0000
      3  CD1        6.1110  -23.2140    0.3150 C.3    17  LEU17       0.0000
      4  CD2        3.9240  -22.7940   -0.7690 C.3    17  LEU17       0.0000
      5  CB         3.8720  -17.2370    1.5730 C.3    18  ASP18       0.0476
      6  CG         2.4440  -17.7210    1.8880 C.2    18  ASP18       0.0507
      7  OD1        1.8320  -18.4410    1.0660 O.co2  18  ASP18      -0.5492
      8  OD2        1.9260  -17.3730    2.9700 O.co2  18  ASP18      -0.5492
      9  CB         7.9140  -14.3690   -1.8400 C.3    19  ILE19       0.0000
     10  CG1        8.8760  -14.8240   -0.7490 C.3    19  ILE19       0.0000
     11  CG2        8.2810  -12.9320   -2.2380 C.3    19  ILE19       0.0000
     12  CD1        9.3280  -13.7050    0.1860 C.3    19  ILE19       0.0000
     13  CB         5.8140  -13.8870   -5.9550 C.3    20  ILE20       0.0000
     14  CG1        5.9530  -12.3980   -5.6400 C.3    20  ILE20       0.0000
     15  CG2        5.1640  -14.0490   -7.3150 C.3    20  ILE20       0.0000
     16  CD1        6.8340  -11.6390   -6.6010 C.3    20  ILE20       0.0000
     17  CB         2.6690  -18.5180   -5.3120 C.3    21  TRP21       0.0327
     18  CG         1.5690  -17.9980   -4.3600 C.ar   21  TRP21      -0.0013
     19  CD1        0.7990  -18.7930   -3.5490 C.ar   21  TRP21       0.0946
     20  CD2        1.2480  -16.6350   -3.9890 C.ar   21  TRP21       0.0152
     21  CE2        0.3020  -16.7070   -2.9250 C.ar   21  TRP21       0.0810
     22  CE3        1.6680  -15.3700   -4.4360 C.ar   21  TRP21       0.0012
     23  NE1        0.0520  -18.0350   -2.6840 N.ar   21  TRP21      -0.2442
     24  CZ2       -0.2230  -15.5590   -2.2950 C.ar   21  TRP21       0.0191
     25  CZ3        1.1420  -14.2140   -3.8060 C.ar   21  TRP21       0.0001
     26  CH2        0.2070  -14.3240   -2.7450 C.ar   21  TRP21       0.0015
@<TRIPOS>BOND
     1    15    13    1
     2    16    14    1
     3    13    14    1
     4    17    18    1
     5    22    20   ar
     6    22    25   ar
     7    18    20   ar
     8    18    19   ar
     9    20    21   ar
    10    25    26   ar
    11    19    23   ar
    12    21    23   ar
    13    21    24   ar
    14    26    24   ar
    15    11     9    1
    16     9    10    1
    17     1     2    1
    18     2     4    1
    19     2     3    1
    20    10    12    1
    21     7     6   ar
    22     5     6    1
    23     6     8   ar
@<TRIPOS>MOLECULE
123882
 117 122 0 0 0
SMALL
GASTEIGER

@<TRIPOS>ATOM
      1 S          -3.3147  -19.7451    0.5378 S.2     3  UNK33      -0.0993
      2 O           6.7404  -16.3668   -6.1080 O.2     1  UNK11      -0.2755
      3 O           3.5615  -18.3548    3.1729 O.2     4  LEU44      -0.2738
      4 O           2.3704  -18.4374   -5.5525 O.2     1  UNK11      -0.2737
      5 O           3.3593  -18.8949   -1.0549 O.2     5  TRP55      -0.2738
      6 O           5.6344  -19.3847   -3.5615 O.2     6  ASP66      -0.2738
      7 O          -0.6269  -19.1712    1.7049 O.2     3  UNK33      -0.2734
      8 O           0.4995  -16.0972   -1.4349 O.2     2  ASP22      -0.2737
      9 OD1         7.6982  -18.3772    0.7794 O.co2   6  ASP66      -0.5497
     10 OD2         8.7529  -16.5441   -0.0883 O.co2   6  ASP66      -0.5497
     11 OD1        -0.6090  -13.8864   -4.0876 O.co2   2  ASP22      -0.5497
     12 OD2         1.6156  -14.4244   -4.1412 O.co2   2  ASP22      -0.5497
     13 N           5.9942  -14.2599   -6.5550 N.am    1  UNK11      -0.2984
     14 N           6.6199  -11.3959   -6.6888 N.pl3   1  UNK11      -0.3269
     15 N           4.9843  -17.1838   -3.5278 N.am    1  UNK11      -0.3020
     16 N           2.6875  -19.4836    1.3877 N.am    5  TRP55      -0.3022
     17 N           0.8057  -17.6326    0.8606 N.am    4  LEU44      -0.3022
     18 N           5.5936  -19.2074   -0.6341 N.am    6  ASP66      -0.3021
     19 N           2.1886  -17.0213   -3.7562 N.am    2  ASP22      -0.3021
     20 N          -0.3729  -18.1659   -1.7423 N.am    3  UNK33      -0.2984
     21 NE1         6.7130  -23.6269    0.3171 N.ar    5  TRP55      -0.3604
     22 C           7.3672  -13.7931   -6.7585 C.3     1  UNK11       0.0304
     23 C           4.9328  -13.2644   -6.7635 C.3     1  UNK11       0.0304
     24 C           7.4533  -12.3958   -7.3900 C.3     1  UNK11       0.0280
     25 C           5.3126  -11.8982   -6.1716 C.3     1  UNK11       0.0280
     26 C           5.8137  -15.5550   -6.0884 C.2     1  UNK11       0.2179
     27 C           4.4349  -15.8990   -5.5653 C.3     1  UNK11       0.0510
     28 C           4.3820  -17.2525   -4.8610 C.3     1  UNK11       0.1076
     29 CA          1.5630  -17.4148    2.1085 C.3     4  LEU44       0.0997
     30 CB          2.0777  -15.9623    2.0882 C.3     4  LEU44      -0.0236
     31 CA          3.9282  -20.1357    0.9421 C.3     5  TRP55       0.1034
     32 C           7.2166  -10.4832   -5.8059 C.ar    1  UNK11       0.0298
     33 CG          2.6892  -15.4000    3.3852 C.3     4  LEU44      -0.0446
     34 CB          3.6517  -21.6123    0.6604 C.3     5  TRP55       0.0013
     35 C           2.7241  -18.4330    2.2788 C.2     4  LEU44       0.2340
     36 CA          6.0159  -18.1081   -1.4985 C.3     6  ASP66       0.1045
     37 C           2.9034  -17.6792   -4.7403 C.2     1  UNK11       0.2344
     38 CG          4.8449  -22.4156    0.2526 C.ar    5  TRP55      -0.0201
     39 C           4.2607  -19.3587   -0.3471 C.2     5  TRP55       0.2343
     40 C           5.5251  -18.3227   -2.9507 C.2     6  ASP66       0.2343
     41 CA          0.7468  -17.1351   -3.6612 C.3     2  ASP22       0.1045
     42 CD2         1.7587  -15.5377    4.5885 C.3     4  LEU44      -0.0626
     43 CD1         3.0481  -13.9237    3.1758 C.3     4  LEU44      -0.0626
     44 C          -1.1735  -18.1871   -0.5175 C.3     3  UNK33       0.1311
     45 C           6.5421   -9.2880   -5.4992 C.ar    1  UNK11      -0.0407
     46 C           8.4478  -10.7029   -5.1746 C.ar    1  UNK11      -0.0407
     47 CD2         5.2287  -22.7466   -1.0868 C.ar    5  TRP55       0.0029
     48 C          -0.3119  -18.4434    0.7663 C.2     3  UNK33       0.2390
     49 CB          7.5326  -17.9523   -1.5316 C.3     6  ASP66       0.0138
     50 CD1         5.7825  -22.9869    1.0904 C.ar    5  TRP55       0.0060
     51 CE2         6.3863  -23.5210   -1.0138 C.ar    5  TRP55       0.0467
     52 C           0.2904  -17.0435   -2.1893 C.2     2  ASP22       0.2345
     53 CB          0.0072  -16.1157   -4.5185 C.3     2  ASP22       0.0138
     54 C           7.0641   -8.3585   -4.5952 C.ar    1  UNK11      -0.0600
     55 C           8.9744   -9.7780   -4.2641 C.ar    1  UNK11      -0.0600
     56 C          -2.3208  -19.1709   -0.7465 C.ar    3  UNK33       0.0189
     57 CE3         4.7064  -22.4387   -2.3586 C.ar    5  TRP55      -0.0523
     58 C           8.2821   -8.6064   -3.9736 C.ar    1  UNK11      -0.0616
     59 CZ2         7.0386  -24.0177   -2.1497 C.ar    5  TRP55      -0.0378
     60 CG          8.0392  -17.5823   -0.1475 C.2     6  ASP66       0.0440
     61 CZ3         5.3524  -22.9147   -3.5041 C.ar    5  TRP55      -0.0611
     62 C          -2.8255  -19.6218   -1.9625 C.ar    3  UNK33      -0.0493
     63 CH2         6.4982  -23.6981   -3.3990 C.ar    5  TRP55      -0.0598
     64 CG          0.3739  -14.6718   -4.1916 C.2     2  ASP22       0.0440
     65 C          -3.9314  -20.5079   -1.8251 C.ar    3  UNK33      -0.0544
     66 C          -4.2760  -20.6891   -0.5081 C.ar    3  UNK33      -0.0240
     67 H           4.6203  -16.4907   -2.8855 H       1  UNK11       0.1495
     68 H           2.0392  -19.3133    0.6239 H       5  TRP55       0.1495
     69 H           0.9952  -16.9958    0.0818 H       4  LEU44       0.1495
     70 H           6.2429  -19.3377    0.1515 H       6  ASP66       0.1495
     71 H           2.5126  -16.0846   -3.5036 H       2  ASP22       0.1495
     72 H          -0.1252  -19.0494   -2.1702 H       3  UNK33       0.1498
     73 HE1         7.5381  -24.0912    0.6665 H       5  TRP55       0.1653
     74 H           7.8508  -13.7921   -5.7740 H       1  UNK11       0.0480
     75 H           7.9011  -14.5188   -7.3831 H       1  UNK11       0.0480
     76 H           4.8022  -13.1772   -7.8495 H       1  UNK11       0.0480
     77 H           3.9744  -13.5913   -6.3579 H       1  UNK11       0.0480
     78 H           7.0789  -12.4587   -8.4201 H       1  UNK11       0.0479
     79 H           8.4976  -12.0762   -7.4853 H       1  UNK11       0.0479
     80 H           5.3528  -12.0043   -5.0790 H       1  UNK11       0.0479
     81 H           4.5252  -11.1766   -6.4174 H       1  UNK11       0.0479
     82 H           4.1295  -15.1145   -4.8643 H       1  UNK11       0.0381
     83 H           3.7492  -15.8962   -6.4213 H       1  UNK11       0.0381
     84 H           4.8955  -18.0246   -5.4458 H       1  UNK11       0.0599
     85 HA          0.8660  -17.5713    2.9383 H       4  LEU44       0.0594
     86 HB1         2.8210  -15.8644    1.2841 H       4  LEU44       0.0290
     87 HB2         1.2409  -15.3099    1.7988 H       4  LEU44       0.0290
     88 HA          4.7191  -19.9938    1.6863 H       5  TRP55       0.0598
     89 HG          3.6223  -15.9284    3.6071 H       4  LEU44       0.0296
     90 HB1         3.2240  -22.0703    1.5635 H       5  TRP55       0.0337
     91 HB2         2.8726  -21.7083   -0.1077 H       5  TRP55       0.0337
     92 HA          5.5565  -17.1971   -1.0925 H       6  ASP66       0.0598
     93 HA          0.4705  -18.1294   -4.0348 H       2  ASP22       0.0598
     94 HD21        0.7812  -15.0860    4.3888 H       4  LEU44       0.0232
     95 HD22        1.6048  -16.5881    4.8526 H       4  LEU44       0.0232
     96 HD23        2.1859  -15.0432    5.4676 H       4  LEU44       0.0232
     97 HD11        2.1552  -13.3218    2.9737 H       4  LEU44       0.0232
     98 HD12        3.5391  -13.5116    4.0637 H       4  LEU44       0.0232
     99 HD13        3.7343  -13.8053    2.3303 H       4  LEU44       0.0232
    100 H          -1.6157  -17.1895   -0.3898 H       3  UNK33       0.0651
    101 H           5.5886   -9.0736   -5.9756 H       1  UNK11       0.0636
    102 H           9.0035  -11.6212   -5.3354 H       1  UNK11       0.0636
    103 HB1         8.0197  -18.8843   -1.8429 H       6  ASP66       0.0348
    104 HB2         7.8202  -17.1788   -2.2544 H       6  ASP66       0.0348
    105 HD1         5.8800  -22.9664    2.1675 H       5  TRP55       0.0810
    106 HB1         0.2380  -16.2734   -5.5791 H       2  ASP22       0.0348
    107 HB2        -1.0754  -16.2518   -4.3990 H       2  ASP22       0.0348
    108 H           6.5083   -7.4527   -4.3722 H       1  UNK11       0.0618
    109 H           9.9160   -9.9919   -3.7654 H       1  UNK11       0.0618
    110 HE3         3.8411  -21.7894   -2.4615 H       5  TRP55       0.0624
    111 H           8.6833   -7.8990   -3.2543 H       1  UNK11       0.0618
    112 HZ2         7.9491  -24.5999   -2.0712 H       5  TRP55       0.0638
    113 HZ3         4.9716  -22.6276   -4.4811 H       5  TRP55       0.0618
    114 H          -2.4185  -19.3239   -2.9226 H       3  UNK33       0.0626
    115 HH2         6.9967  -24.0341   -4.3038 H       5  TRP55       0.0618
    116 H          -4.4483  -20.9777   -2.6521 H       3  UNK33       0.0623
    117 H          -5.0672  -21.3070   -0.1085 H       3  UNK33       0.0693
@<TRIPOS>BOND
     1     1    56   ar
     2     1    66   ar
     3     2    26    2
     4     3    35    2
     5     4    37    2
     6     5    39    2
     7     6    40    2
     8     7    48    2
     9     8    52    2
    10     9    60   ar
    11    10    60   ar
    12    11    64   ar
    13    12    64   ar
    14    13    22    1
    15    13    23    1
    16    14    24    1
    17    14    25    1
    18    14    32    1
    19    15    28    1
    20    15    40   am
    21    16    35   am
    22    16    31    1
    23    17    48   am
    24    17    29    1
    25    18    39   am
    26    18    36    1
    27    19    37   am
    28    19    41    1
    29    20    52   am
    30    20    44    1
    31    21    50   ar
    32    21    51   ar
    33    22    24    1
    34    23    25    1
    35    26    27    1
    36    26    13   am
    37    28    37    1
    38    28    27    1
    39    29    35    1
    40    29    30    1
    41    30    33    1
    42    31    39    1
    43    31    34    1
    44    32    45   ar
    45    32    46   ar
    46    33    43    1
    47    33    42    1
    48    34    38    1
    49    36    40    1
    50    36    49    1
    51    38    47   ar
    52    38    50   ar
    53    41    52    1
    54    41    53    1
    55    44    48    1
    56    44    56    1
    57    45    54   ar
    58    46    55   ar
    59    47    57   ar
    60    47    51   ar
    61    49    60    1
    62    51    59   ar
    63    53    64    1
    64    54    58   ar
    65    55    58   ar
    66    56    62   ar
    67    57    61   ar
    68    59    63   ar
    69    61    63   ar
    70    62    65   ar
    71    65    66   ar
    72    15    67    1
    73    16    68    1
    74    17    69    1
    75    18    70    1
    76    19    71    1
    77    20    72    1
    78    21    73    1
    79    22    74    1
    80    22    75    1
    81    23    76    1
    82    23    77    1
    83    24    78    1
    84    24    79    1
    85    25    80    1
    86    25    81    1
    87    27    82    1
    88    27    83    1
    89    28    84    1
    90    29    85    1
    91    30    86    1
    92    30    87    1
    93    31    88    1
    94    33    89    1
    95    34    90    1
    96    34    91    1
    97    36    92    1
    98    41    93    1
    99    42    94    1
   100    42    95    1
   101    42    96    1
   102    43    97    1
   103    43    98    1
   104    43    99    1
   105    44   100    1
   106    45   101    1
   107    46   102    1
   108    49   103    1
   109    49   104    1
   110    50   105    1
   111    53   106    1
   112    53   107    1
   113    54   108    1
   114    55   109    1
   115    57   110    1
   116    58   111    1
   117    59   112    1
   118    61   113    1
   119    62   114    1
   120    63   115    1
   121    65   116    1
   122    66   117    1
@<TRIPOS>MOLECULE
../1EDN/XRAY_17-21.pdb
 47 48 0 0 0
SMALL
GASTEIGER

@<TRIPOS>ATOM
      1  N          6.4500  -19.7300   -2.8460 N.3    17  LEU17      -0.1231
      2  CA         5.2640  -20.1680   -2.1160 C.3    17  LEU17       0.1693
      3  C          4.7010  -18.8060   -1.6720 C.2    17  LEU17       0.2592
      4  O          4.3760  -17.9800   -2.5270 O.2    17  LEU17      -0.2718
      5  CB         5.6570  -21.0170   -0.8850 C.3    17  LEU17       0.0284
      6  CG         5.4050  -22.5400   -0.8470 C.3    17  LEU17       0.0019
      7  CD1        6.1110  -23.2140    0.3150 C.3    17  LEU17       0.0001
      8  CD2        3.9240  -22.7940   -0.7690 C.3    17  LEU17       0.0001
      9  N          4.7270  -18.4910   -0.3800 N.am   18  ASP18      -0.1962
     10  CA         4.1720  -17.2010    0.0630 C.3    18  ASP18       0.1783
     11  C          4.7750  -15.8130   -0.3500 C.2    18  ASP18       0.2620
     12  O          4.1570  -14.7710   -0.0750 O.2    18  ASP18      -0.2715
     13  CB         3.8720  -17.2370    1.5730 C.3    18  ASP18       0.0728
     14  CG         2.4440  -17.7210    1.8880 C.2    18  ASP18       0.0526
     15  OD1        1.8320  -18.4410    1.0660 O.co2  18  ASP18      -0.5491
     16  OD2        1.9260  -17.3730    2.9700 O.co2  18  ASP18      -0.5491
     17  N          5.9570  -15.7420   -0.9630 N.am   19  ILE19      -0.1963
     18  CA         6.4450  -14.4030   -1.3510 C.3    19  ILE19       0.1727
     19  C          5.5760  -13.9960   -2.5290 C.2    19  ILE19       0.2616
     20  O          4.8370  -13.0080   -2.4770 O.2    19  ILE19      -0.2715
     21  CB         7.9140  -14.3690   -1.8400 C.3    19  ILE19       0.0290
     22  CG1        8.8760  -14.8240   -0.7490 C.3    19  ILE19       0.0022
     23  CG2        8.2810  -12.9320   -2.2380 C.3    19  ILE19       0.0023
     24  CD1        9.3280  -13.7050    0.1860 C.3    19  ILE19       0.0001
     25  N          5.7170  -14.7750   -3.5990 N.am   20  ILE20      -0.1963
     26  CA         4.9770  -14.6140   -4.8450 C.3    20  ILE20       0.1727
     27  C          4.7560  -16.0550   -5.2510 C.2    20  ILE20       0.2615
     28  O          5.5820  -16.9240   -4.9410 O.2    20  ILE20      -0.2715
     29  CB         5.8140  -13.8870   -5.9550 C.3    20  ILE20       0.0290
     30  CG1        5.9530  -12.3980   -5.6400 C.3    20  ILE20       0.0022
     31  CG2        5.1640  -14.0490   -7.3150 C.3    20  ILE20       0.0023
     32  CD1        6.8340  -11.6390   -6.6010 C.3    20  ILE20       0.0001
     33  N          3.6520  -16.3070   -5.9350 N.am   21  TRP21      -0.1988
     34  CA         3.3300  -17.6370   -6.4010 C.3    21  TRP21       0.1456
     35  C          2.5650  -17.6270   -7.7180 C.2    21  TRP21       0.1166
     36  O          1.8980  -18.6320   -8.0750 O.co2  21  TRP21      -0.3065
     37  CB         2.6690  -18.5180   -5.3120 C.3    21  TRP21       0.0562
     38  CG         1.5690  -17.9980   -4.3600 C.ar   21  TRP21       0.0005
     39  CD1        0.7990  -18.7930   -3.5490 C.ar   21  TRP21       0.0946
     40  CD2        1.2480  -16.6350   -3.9890 C.ar   21  TRP21       0.0152
     41  CE2        0.3020  -16.7070   -2.9250 C.ar   21  TRP21       0.0810
     42  CE3        1.6680  -15.3700   -4.4360 C.ar   21  TRP21       0.0012
     43  NE1        0.0520  -18.0350   -2.6840 N.ar   21  TRP21      -0.2442
     44  CZ2       -0.2230  -15.5590   -2.2950 C.ar   21  TRP21       0.0191
     45  CZ3        1.1420  -14.2140   -3.8060 C.ar   21  TRP21       0.0001
     46  CH2        0.2070  -14.3240   -2.7450 C.ar   21  TRP21       0.0015
     47  OXT        2.7400  -16.6140   -8.4280 O.co2  21  TRP21      -0.8460
@<TRIPOS>BOND
     1    47    35   ar
     2    36    35   ar
     3    35    34    1
     4    31    29    1
     5    32    30    1
     6    34    33    1
     7    34    37    1
     8    29    30    1
     9    29    26    1
    10    33    27   am
    11    37    38    1
    12    27    28    2
    13    27    26    1
    14    26    25    1
    15    42    40   ar
    16    42    45   ar
    17    38    40   ar
    18    38    39   ar
    19    40    41   ar
    20    45    46   ar
    21    25    19   am
    22    39    43   ar
    23    41    43   ar
    24    41    44   ar
    25     1     2    1
    26    46    44   ar
    27    19    20    2
    28    19    18    1
    29     4     3    2
    30    23    21    1
    31     2     3    1
    32     2     5    1
    33    21    18    1
    34    21    22    1
    35     3     9   am
    36    18    17    1
    37    17    11   am
    38     5     6    1
    39     6     8    1
    40     6     7    1
    41    22    24    1
    42     9    10    1
    43    11    12    2
    44    11    10    1
    45    10    13    1
    46    15    14   ar
    47    13    14    1
    48    14    16   ar
