@<TRIPOS>MOLECULE
6433095
 64 68 0 0 0
SMALL
GASTEIGER

@<TRIPOS>ATOM
      1 S         -10.1029    1.8714   -2.8015 S.O2    1  LIG11       0.0908
      2 O          -7.7073    2.4596   -0.2418 O.3     1  LIG11      -0.4435
      3 O          -6.4649    4.7560    0.3638 O.3     1  LIG11      -0.4715
      4 O         -10.7574    1.5284   -4.0468 O.2     1  LIG11      -0.1484
      5 O         -10.1700    0.9327   -1.6973 O.2     1  LIG11      -0.1484
      6 O          -8.8471    0.5343    1.4086 O.3     1  LIG11      -0.4914
      7 O          -3.7808    5.7160    1.2205 O.3     1  LIG11      -0.3917
      8 N          -8.4450    2.0398   -3.1155 N.pl3   1  LIG11      -0.1950
      9 N          -7.5239    4.0929   -3.5268 N.ar    1  LIG11      -0.2073
     10 N          -6.5747    5.4884   -1.8635 N.ar    1  LIG11      -0.1899
     11 N         -11.0665    4.3245   -3.1684 N.ar    1  LIG11      -0.2351
     12 N          -5.6269    8.0242   -6.1245 N.ar    1  LIG11      -0.2552
     13 N          -6.2400    7.5304   -8.8913 N.ar    1  LIG11      -0.5621
     14 N          -6.8929    5.4210   -8.4034 N.ar    1  LIG11      -0.1535
     15 N          -6.5612    6.7958   -9.9617 N.ar    1  LIG11      -0.3597
     16 N          -6.9510    5.5404   -9.7218 N.ar    1  LIG11      -0.0878
     17 C          -7.7890    3.1835   -2.5762 C.ar    1  LIG11       0.1882
     18 C          -7.4309    3.3327   -1.2497 C.ar    1  LIG11       0.2307
     19 C          -6.8461    4.5455   -0.9472 C.ar    1  LIG11       0.2641
     20 C          -6.9022    5.2145   -3.1357 C.ar    1  LIG11       0.1659
     21 C         -10.7448    3.4302   -2.2001 C.ar    1  LIG11       0.1969
     22 C          -6.4851    6.1834   -4.1649 C.ar    1  LIG11       0.0227
     23 C         -11.0046    3.6039   -0.8479 C.ar    1  LIG11      -0.0160
     24 C          -7.1816    1.1876   -0.2624 C.ar    1  LIG11       0.1702
     25 C          -6.7018    5.9482   -5.5325 C.ar    1  LIG11      -0.0252
     26 C         -12.0151    5.7167   -1.4280 C.ar    1  LIG11      -0.0322
     27 C         -11.6444    4.7770   -0.4608 C.ar    1  LIG11      -0.0541
     28 C          -5.8213    7.3707   -3.8192 C.ar    1  LIG11      -0.0328
     29 C          -6.1074    6.1041    0.6963 C.3     1  LIG11       0.1143
     30 C          -6.2626    6.8761   -6.4759 C.ar    1  LIG11       0.0708
     31 C         -11.7085    5.4378   -2.7581 C.ar    1  LIG11       0.0327
     32 C          -7.8134    0.2380    0.5559 C.ar    1  LIG11       0.1621
     33 C          -6.0908    0.7941   -1.0475 C.ar    1  LIG11      -0.0157
     34 C          -5.4195    8.2437   -4.8139 C.ar    1  LIG11       0.0289
     35 C         -12.8039    6.9339   -1.0594 C.3     1  LIG11      -0.0383
     36 C          -5.0410    6.0695    1.7893 C.3     1  LIG11       0.0783
     37 C          -7.4516   -1.1075    0.4813 C.ar    1  LIG11      -0.0163
     38 C          -5.7135   -0.5511   -1.0971 C.ar    1  LIG11      -0.0581
     39 C          -6.4058   -1.5031   -0.3500 C.ar    1  LIG11      -0.0581
     40 C          -6.4584    6.6339   -7.9075 C.ar    1  LIG11       0.0207
     41 C          -8.4915    1.5192    2.3787 C.3     1  LIG11       0.0790
     42 H          -3.1375    5.6713    1.9481 H       1  LIG11       0.2095
     43 H          -8.0345    1.1883   -2.7330 H       1  LIG11       0.1754
     44 H          -6.5142    7.1685  -10.9057 H       1  LIG11       0.1651
     45 H         -10.7489    2.8424   -0.1177 H       1  LIG11       0.0653
     46 H          -7.2055    5.0395   -5.8571 H       1  LIG11       0.0646
     47 H         -11.8829    4.9391    0.5878 H       1  LIG11       0.0622
     48 H          -5.6061    7.6148   -2.7826 H       1  LIG11       0.0640
     49 H          -5.7101    6.6769   -0.1478 H       1  LIG11       0.0720
     50 H          -7.0086    6.5979    1.0756 H       1  LIG11       0.0720
     51 H         -11.9983    6.1149   -3.5584 H       1  LIG11       0.0833
     52 H          -5.5270    1.5072   -1.6427 H       1  LIG11       0.0655
     53 H          -4.8993    9.1669   -4.5739 H       1  LIG11       0.0830
     54 H         -12.5270    7.2918   -0.0626 H       1  LIG11       0.0278
     55 H         -12.6187    7.7509   -1.7641 H       1  LIG11       0.0278
     56 H         -13.8736    6.7007   -1.0656 H       1  LIG11       0.0278
     57 H          -5.2862    5.3316    2.5591 H       1  LIG11       0.0591
     58 H          -4.9353    7.0583    2.2456 H       1  LIG11       0.0591
     59 H          -7.9862   -1.8450    1.0746 H       1  LIG11       0.0655
     60 H          -4.8845   -0.8607   -1.7300 H       1  LIG11       0.0619
     61 H          -6.1264   -2.5524   -0.4069 H       1  LIG11       0.0619
     62 H          -9.0409    1.2955    3.2983 H       1  LIG11       0.0660
     63 H          -7.4216    1.5161    2.6189 H       1  LIG11       0.0660
     64 H          -8.8034    2.5113    2.0386 H       1  LIG11       0.0660
@<TRIPOS>BOND
     1     1     4    2
     2     1     5    2
     3     1     8    1
     4     1    21    1
     5     2    18    1
     6     2    24    1
     7     3    19    1
     8     3    29    1
     9     6    32    1
    10     6    41    1
    11     7    36    1
    12     8    17    1
    13     9    17   ar
    14     9    20   ar
    15    10    19   ar
    16    10    20   ar
    17    11    21   ar
    18    11    31   ar
    19    12    30   ar
    20    12    34   ar
    21    13    15   ar
    22    13    40   ar
    23    14    16   ar
    24    14    40   ar
    25    15    16   ar
    26    17    18   ar
    27    18    19   ar
    28    20    22    1
    29    21    23   ar
    30    22    25   ar
    31    22    28   ar
    32    23    27   ar
    33    24    32   ar
    34    24    33   ar
    35    25    30   ar
    36    26    27   ar
    37    26    31   ar
    38    26    35    1
    39    28    34   ar
    40    29    36    1
    41    30    40    1
    42    32    37   ar
    43    33    38   ar
    44    37    39   ar
    45    38    39   ar
    46     7    42    1
    47     8    43    1
    48    15    44    1
    49    23    45    1
    50    25    46    1
    51    27    47    1
    52    28    48    1
    53    29    49    1
    54    29    50    1
    55    31    51    1
    56    33    52    1
    57    34    53    1
    58    35    54    1
    59    35    55    1
    60    35    56    1
    61    36    57    1
    62    36    58    1
    63    37    59    1
    64    38    60    1
    65    39    61    1
    66    41    62    1
    67    41    63    1
    68    41    64    1
@<TRIPOS>MOLECULE
../1EDN/3STEPMIN_17-21.pdb
 47 48 0 0 0
SMALL
GASTEIGER

@<TRIPOS>ATOM
      1  N         -5.4290    0.8830   -1.1740 N.3    17  LEU17      -0.1231
      2  CA        -6.8230    0.6710   -0.7980 C.3    17  LEU17       0.1693
      3  CB        -6.9230   -0.4370    0.2770 C.3    17  LEU17       0.0284
      4  CG        -6.4950   -1.8450   -0.1910 C.3    17  LEU17       0.0019
      5  CD1       -6.5150   -2.8060    0.9980 C.3    17  LEU17       0.0001
      6  CD2       -7.4310   -2.4140   -1.2600 C.3    17  LEU17       0.0001
      7  C         -7.3990    2.0370   -0.3760 C.2    17  LEU17       0.2592
      8  O         -7.4670    2.9330   -1.2040 O.2    17  LEU17      -0.2718
      9  N         -7.7380    2.2560    0.8970 N.am   18  ASP18      -0.1960
     10  CA        -8.5130    3.4280    1.3730 C.3    18  ASP18       0.1840
     11  CB        -9.0510    3.1310    2.7840 C.3    18  ASP18       0.1450
     12  CG       -10.5470    3.4340    2.8500 C.2    18  ASP18       0.3671
     13  OD1      -11.3300    2.4930    2.5610 O.co2  18  ASP18      -0.2456
     14  OD2      -10.9050    4.5930    3.1470 O.co2  18  ASP18      -0.2456
     15  C         -7.8270    4.8120    1.2910 C.2    18  ASP18       0.2622
     16  O         -8.3890    5.8210    1.7350 O.2    18  ASP18      -0.2715
     17  N         -6.6250    4.8510    0.7010 N.am   19  ILE19      -0.1963
     18  CA        -5.9180    6.0210    0.1680 C.3    19  ILE19       0.1727
     19  CB        -4.3960    5.7260    0.0740 C.3    19  ILE19       0.0290
     20  CG2       -3.6150    6.9530   -0.4300 C.3    19  ILE19       0.0023
     21  CG1       -3.7730    5.2100    1.3920 C.3    19  ILE19       0.0022
     22  CD1       -3.8620    6.1700    2.5820 C.3    19  ILE19       0.0001
     23  C         -6.4970    6.4050   -1.2110 C.2    19  ILE19       0.2616
     24  O         -7.0070    7.5130   -1.3720 O.2    19  ILE19      -0.2715
     25  N         -6.3950    5.4980   -2.1940 N.am   20  ILE20      -0.1963
     26  CA        -6.9990    5.5490   -3.5400 C.3    20  ILE20       0.1727
     27  CB        -6.0900    6.2460   -4.5940 C.3    20  ILE20       0.0290
     28  CG2       -6.7980    6.2490   -5.9680 C.3    20  ILE20       0.0023
     29  CG1       -5.7140    7.6970   -4.2070 C.3    20  ILE20       0.0022
     30  CD1       -4.7810    8.4150   -5.1910 C.3    20  ILE20       0.0001
     31  C         -7.3180    4.1070   -3.9880 C.2    20  ILE20       0.2617
     32  O         -6.4020    3.3070   -4.2100 O.2    20  ILE20      -0.2715
     33  N         -8.6100    3.8210   -4.1620 N.am   21  TRP21      -0.1938
     34  CA        -9.2240    2.5950   -4.7020 C.3    21  TRP21       0.2021
     35  CB        -9.7020    1.6830   -3.5450 C.3    21  TRP21       0.0612
     36  CG       -10.4970    2.2370   -2.3850 C.ar   21  TRP21       0.0007
     37  CD1      -10.6860    1.5470   -1.2340 C.ar   21  TRP21       0.0946
     38  NE1      -11.3350    2.3340   -0.3040 N.ar   21  TRP21      -0.2442
     39  CE2      -11.5720    3.5950   -0.7990 C.ar   21  TRP21       0.0810
     40  CZ2      -12.0950    4.7480   -0.2000 C.ar   21  TRP21       0.0191
     41  CH2      -12.2340    5.9130   -0.9670 C.ar   21  TRP21       0.0015
     42  CZ3      -11.8800    5.8920   -2.3260 C.ar   21  TRP21       0.0001
     43  CE3      -11.3480    4.7280   -2.9100 C.ar   21  TRP21       0.0012
     44  CD2      -11.1270    3.5500   -2.1550 C.ar   21  TRP21       0.0152
     45  C        -10.3230    2.8760   -5.7330 C.2    21  TRP21       0.3845
     46  O        -11.0800    1.9620   -6.0950 O.co2  21  TRP21      -0.2437
     47  OXT      -10.4270    4.0430   -6.2080 O.co2  21  TRP21      -0.2437
@<TRIPOS>BOND
     1    47    45   ar
     2    46    45   ar
     3    28    27    1
     4    45    34    1
     5    30    29    1
     6    34    33    1
     7    34    35    1
     8    27    29    1
     9    27    26    1
    10    32    31    2
    11    33    31   am
    12    31    26    1
    13    35    36    1
    14    26    25    1
    15    43    42   ar
    16    43    44   ar
    17    36    44   ar
    18    36    37   ar
    19    42    41   ar
    20    25    23   am
    21    44    39   ar
    22    24    23    2
    23     6     4    1
    24    37    38   ar
    25    23    18    1
    26     8     7    2
    27     1     2    1
    28    41    40   ar
    29    39    38   ar
    30    39    40   ar
    31     2     7    1
    32     2     3    1
    33    20    19    1
    34     7     9   am
    35     4     3    1
    36     4     5    1
    37    19    18    1
    38    19    21    1
    39    18    17    1
    40    17    15   am
    41     9    10    1
    42    15    10    1
    43    15    16    2
    44    10    11    1
    45    21    22    1
    46    13    12   ar
    47    11    12    1
    48    12    14   ar
