@<TRIPOS>MOLECULE
11672244
 106 111 0 0 0
SMALL
GASTEIGER

@<TRIPOS>ATOM
      1 O          -9.5156    5.3521   -2.0563 O.3     1  LIG11      -0.4607
      2 O         -12.7993   -0.4087   -4.4751 O.2     1  LIG11      -0.2968
      3 O          -4.1508    6.4831   -4.7239 O.co2   1  LIG11      -0.5492
      4 O          -4.6140    8.5496   -5.5408 O.co2   1  LIG11      -0.5492
      5 O         -11.7703    5.2869   -2.5091 O.2     1  LIG11      -0.2456
      6 O         -11.7400    4.9972    4.7709 O.3     1  LIG11      -0.5067
      7 O          -7.6884    2.3084    0.3710 O.2     1  LIG11      -0.2705
      8 O          -7.6588   -2.5639   -0.9280 O.co2   1  LIG11      -0.5452
      9 O          -5.6496   -2.5363    0.1632 O.co2   1  LIG11      -0.5452
     10 N          -9.5608    1.2401    1.2861 N.am    1  LIG11      -0.2815
     11 C          -8.5081    4.5265   -5.0583 C.3     1  LIG11      -0.0160
     12 C          -8.5647    3.2239   -4.1772 C.3     1  LIG11      -0.0256
     13 C          -8.0964    5.8036   -4.1112 C.3     1  LIG11       0.0318
     14 C          -9.2842    1.9372   -4.7969 C.3     1  LIG11      -0.0243
     15 C         -10.6731    2.4027   -5.3635 C.3     1  LIG11      -0.0235
     16 C          -9.8769    4.7622   -5.7499 C.3     1  LIG11      -0.0461
     17 C          -6.8583    5.4651   -3.2488 C.2     1  LIG11      -0.0596
     18 C          -6.1218    6.6581   -2.6054 C.3     1  LIG11      -0.0080
     19 C         -10.4817    3.5220   -6.4064 C.3     1  LIG11      -0.0483
     20 C          -7.7834    7.0447   -5.0174 C.3     1  LIG11      -0.0392
     21 C          -7.1890    2.9551   -3.5340 C.3     1  LIG11      -0.0306
     22 C          -5.8165    7.8146   -3.5928 C.3     1  LIG11       0.0167
     23 C         -11.6700    1.2788   -5.8017 C.3     1  LIG11       0.0267
     24 C          -9.5804    0.9359   -3.6398 C.3     1  LIG11      -0.0404
     25 C          -7.1279    8.2294   -4.2981 C.3     1  LIG11      -0.0408
     26 C          -7.4479    4.3570   -6.1932 C.3     1  LIG11      -0.0584
     27 C          -6.4937    4.1850   -3.0294 C.2     1  LIG11      -0.0835
     28 C          -9.2485    6.2634   -3.1343 C.3     1  LIG11       0.1025
     29 C          -8.4103    1.2040   -5.8422 C.3     1  LIG11      -0.0590
     30 C          -4.8983    6.3088   -1.7177 C.3     1  LIG11      -0.0405
     31 C          -5.2751    9.0307   -2.7979 C.3     1  LIG11      -0.0412
     32 C         -10.4698   -0.2374   -4.0312 C.3     1  LIG11       0.0069
     33 C          -4.2797    7.5197   -0.9794 C.3     1  LIG11      -0.0343
     34 C         -11.7479    0.1968   -4.7093 C.2     1  LIG11       0.1392
     35 C          -4.0432    8.6863   -1.9573 C.3     1  LIG11      -0.0470
     36 C         -11.3373    0.5988   -7.1373 C.3     1  LIG11      -0.0528
     37 C         -13.0926    1.8857   -5.9431 C.3     1  LIG11      -0.0528
     38 C          -4.7618    7.5852   -4.7291 C.2     1  LIG11       0.0485
     39 C          -2.9279    7.0930   -0.3733 C.3     1  LIG11      -0.0598
     40 C          -5.1911    7.9656    0.1828 C.3     1  LIG11      -0.0598
     41 C         -10.7984    5.0163   -1.8171 C.2     1  LIG11       0.3320
     42 C         -10.9466    4.3310   -0.5159 C.2     1  LIG11       0.0231
     43 C          -9.9487    4.1390    0.3617 C.2     1  LIG11      -0.0460
     44 C         -10.2215    3.6154    1.7076 C.ar    1  LIG11      -0.0001
     45 C         -10.1059    2.2638    2.0849 C.ar    1  LIG11       0.0411
     46 C         -10.7645    4.5388    2.6241 C.ar    1  LIG11      -0.0113
     47 C         -10.6030    1.8579    3.3361 C.ar    1  LIG11      -0.0364
     48 C         -11.2093    4.1179    3.8734 C.ar    1  LIG11       0.1175
     49 C         -11.1426    2.7820    4.2317 C.ar    1  LIG11      -0.0184
     50 C          -8.4271    1.3434    0.4969 C.2     1  LIG11       0.2411
     51 C          -8.1171    0.0202   -0.0912 C.2     1  LIG11       0.0021
     52 C          -6.9610   -0.5959    0.1882 C.2     1  LIG11      -0.0344
     53 C          -6.7288   -2.0329   -0.2570 C.2     1  LIG11       0.0647
     54 H         -11.6581    5.8912    4.3985 H       1  LIG11       0.2921
     55 H          -9.7796    0.2859    1.5499 H       1  LIG11       0.1551
     56 H          -9.2190    3.4749   -3.3390 H       1  LIG11       0.0315
     57 H         -11.1772    2.8822   -4.5072 H       1  LIG11       0.0315
     58 H         -10.6199    5.1100   -5.0292 H       1  LIG11       0.0271
     59 H          -9.7948    5.5549   -6.5032 H       1  LIG11       0.0271
     60 H          -6.8615    7.0525   -1.8937 H       1  LIG11       0.0355
     61 H          -9.8695    3.1969   -7.2518 H       1  LIG11       0.0269
     62 H         -11.4416    3.8257   -6.8345 H       1  LIG11       0.0269
     63 H          -7.1075    6.7786   -5.8334 H       1  LIG11       0.0275
     64 H          -8.7071    7.3981   -5.4920 H       1  LIG11       0.0275
     65 H          -6.5029    2.4694   -4.2326 H       1  LIG11       0.0310
     66 H          -7.3124    2.2728   -2.6856 H       1  LIG11       0.0310
     67 H          -8.6434    0.5333   -3.2379 H       1  LIG11       0.0275
     68 H         -10.0701    1.4691   -2.8137 H       1  LIG11       0.0275
     69 H          -6.9563    9.0271   -5.0320 H       1  LIG11       0.0275
     70 H          -7.8252    8.6658   -3.5741 H       1  LIG11       0.0275
     71 H          -7.5359    3.4130   -6.7231 H       1  LIG11       0.0235
     72 H          -7.5602    5.1229   -6.9684 H       1  LIG11       0.0235
     73 H          -6.4205    4.4146   -5.8219 H       1  LIG11       0.0235
     74 H          -5.6135    3.9609   -2.4331 H       1  LIG11       0.0572
     75 H         -10.1537    6.5302   -3.6877 H       1  LIG11       0.0706
     76 H          -8.9679    7.1900   -2.6255 H       1  LIG11       0.0706
     77 H          -8.4889    1.6302   -6.8429 H       1  LIG11       0.0235
     78 H          -7.3538    1.1889   -5.5685 H       1  LIG11       0.0235
     79 H          -8.6773    0.1514   -5.9518 H       1  LIG11       0.0235
     80 H          -5.1938    5.5668   -0.9633 H       1  LIG11       0.0276
     81 H          -4.1259    5.8260   -2.3282 H       1  LIG11       0.0276
     82 H          -5.0202    9.8650   -3.4637 H       1  LIG11       0.0274
     83 H          -6.0616    9.4200   -2.1390 H       1  LIG11       0.0274
     84 H          -9.9559   -0.9433   -4.6895 H       1  LIG11       0.0342
     85 H         -10.7375   -0.7901   -3.1226 H       1  LIG11       0.0342
     86 H          -3.2115    8.4409   -2.6304 H       1  LIG11       0.0271
     87 H          -3.7282    9.5810   -1.4052 H       1  LIG11       0.0271
     88 H         -10.4347   -0.0112   -7.0924 H       1  LIG11       0.0239
     89 H         -12.1414   -0.0875   -7.4320 H       1  LIG11       0.0239
     90 H         -11.2222    1.3266   -7.9466 H       1  LIG11       0.0239
     91 H         -13.4017    2.3896   -5.0200 H       1  LIG11       0.0239
     92 H         -13.1568    2.6060   -6.7639 H       1  LIG11       0.0239
     93 H         -13.8425    1.1130   -6.1522 H       1  LIG11       0.0239
     94 H          -2.2301    6.7627   -1.1511 H       1  LIG11       0.0235
     95 H          -2.4558    7.9223    0.1655 H       1  LIG11       0.0235
     96 H          -3.0545    6.2638    0.3321 H       1  LIG11       0.0235
     97 H          -6.1789    8.2887   -0.1570 H       1  LIG11       0.0235
     98 H          -5.3433    7.1486    0.8976 H       1  LIG11       0.0235
     99 H          -4.7447    8.8030    0.7312 H       1  LIG11       0.0235
    100 H         -11.9673    4.0504   -0.2812 H       1  LIG11       0.0689
    101 H          -8.9199    4.4235    0.1516 H       1  LIG11       0.0626
    102 H         -10.8533    5.5828    2.3348 H       1  LIG11       0.0660
    103 H         -10.5345    0.8169    3.6430 H       1  LIG11       0.0637
    104 H         -11.4966    2.4583    5.2056 H       1  LIG11       0.0655
    105 H          -8.9022   -0.4711   -0.6549 H       1  LIG11       0.0670
    106 H          -6.1899   -0.1145    0.7810 H       1  LIG11       0.0637
@<TRIPOS>BOND
     1     1    41    1
     2     1    28    1
     3     2    34    2
     4     3    38   ar
     5     4    38   ar
     6     5    41    2
     7     6    48    1
     8     7    50    2
     9     8    53   ar
    10     9    53   ar
    11    10    45    1
    12    10    50   am
    13    11    16    1
    14    11    12    1
    15    11    26    1
    16    11    13    1
    17    12    14    1
    18    13    20    1
    19    13    17    1
    20    13    28    1
    21    14    15    1
    22    14    24    1
    23    14    29    1
    24    15    19    1
    25    15    23    1
    26    16    19    1
    27    17    18    1
    28    17    27    2
    29    18    30    1
    30    18    22    1
    31    20    25    1
    32    21    27    1
    33    21    12    1
    34    22    31    1
    35    22    25    1
    36    22    38    1
    37    23    34    1
    38    23    37    1
    39    23    36    1
    40    24    32    1
    41    30    33    1
    42    31    35    1
    43    32    34    1
    44    33    35    1
    45    33    40    1
    46    33    39    1
    47    41    42    1
    48    42    43    2
    49    43    44    1
    50    44    46   ar
    51    44    45   ar
    52    45    47   ar
    53    46    48   ar
    54    47    49   ar
    55    48    49   ar
    56    50    51    1
    57    51    52    2
    58    52    53    1
    59     6    54    1
    60    10    55    1
    61    12    56    1
    62    15    57    1
    63    16    58    1
    64    16    59    1
    65    18    60    1
    66    19    61    1
    67    19    62    1
    68    20    63    1
    69    20    64    1
    70    21    65    1
    71    21    66    1
    72    24    67    1
    73    24    68    1
    74    25    69    1
    75    25    70    1
    76    26    71    1
    77    26    72    1
    78    26    73    1
    79    27    74    1
    80    28    75    1
    81    28    76    1
    82    29    77    1
    83    29    78    1
    84    29    79    1
    85    30    80    1
    86    30    81    1
    87    31    82    1
    88    31    83    1
    89    32    84    1
    90    32    85    1
    91    35    86    1
    92    35    87    1
    93    36    88    1
    94    36    89    1
    95    36    90    1
    96    37    91    1
    97    37    92    1
    98    37    93    1
    99    39    94    1
   100    39    95    1
   101    39    96    1
   102    40    97    1
   103    40    98    1
   104    40    99    1
   105    42   100    1
   106    43   101    1
   107    46   102    1
   108    47   103    1
   109    49   104    1
   110    51   105    1
   111    52   106    1
@<TRIPOS>MOLECULE
../1EDN/3STEPMIN_17-21.pdb
 47 48 0 0 0
SMALL
GASTEIGER

@<TRIPOS>ATOM
      1  N         -5.4290    0.8830   -1.1740 N.3    17  LEU17      -0.1231
      2  CA        -6.8230    0.6710   -0.7980 C.3    17  LEU17       0.1693
      3  CB        -6.9230   -0.4370    0.2770 C.3    17  LEU17       0.0284
      4  CG        -6.4950   -1.8450   -0.1910 C.3    17  LEU17       0.0019
      5  CD1       -6.5150   -2.8060    0.9980 C.3    17  LEU17       0.0001
      6  CD2       -7.4310   -2.4140   -1.2600 C.3    17  LEU17       0.0001
      7  C         -7.3990    2.0370   -0.3760 C.2    17  LEU17       0.2592
      8  O         -7.4670    2.9330   -1.2040 O.2    17  LEU17      -0.2718
      9  N         -7.7380    2.2560    0.8970 N.am   18  ASP18      -0.1960
     10  CA        -8.5130    3.4280    1.3730 C.3    18  ASP18       0.1840
     11  CB        -9.0510    3.1310    2.7840 C.3    18  ASP18       0.1450
     12  CG       -10.5470    3.4340    2.8500 C.2    18  ASP18       0.3671
     13  OD1      -11.3300    2.4930    2.5610 O.co2  18  ASP18      -0.2456
     14  OD2      -10.9050    4.5930    3.1470 O.co2  18  ASP18      -0.2456
     15  C         -7.8270    4.8120    1.2910 C.2    18  ASP18       0.2622
     16  O         -8.3890    5.8210    1.7350 O.2    18  ASP18      -0.2715
     17  N         -6.6250    4.8510    0.7010 N.am   19  ILE19      -0.1963
     18  CA        -5.9180    6.0210    0.1680 C.3    19  ILE19       0.1727
     19  CB        -4.3960    5.7260    0.0740 C.3    19  ILE19       0.0290
     20  CG2       -3.6150    6.9530   -0.4300 C.3    19  ILE19       0.0023
     21  CG1       -3.7730    5.2100    1.3920 C.3    19  ILE19       0.0022
     22  CD1       -3.8620    6.1700    2.5820 C.3    19  ILE19       0.0001
     23  C         -6.4970    6.4050   -1.2110 C.2    19  ILE19       0.2616
     24  O         -7.0070    7.5130   -1.3720 O.2    19  ILE19      -0.2715
     25  N         -6.3950    5.4980   -2.1940 N.am   20  ILE20      -0.1963
     26  CA        -6.9990    5.5490   -3.5400 C.3    20  ILE20       0.1727
     27  CB        -6.0900    6.2460   -4.5940 C.3    20  ILE20       0.0290
     28  CG2       -6.7980    6.2490   -5.9680 C.3    20  ILE20       0.0023
     29  CG1       -5.7140    7.6970   -4.2070 C.3    20  ILE20       0.0022
     30  CD1       -4.7810    8.4150   -5.1910 C.3    20  ILE20       0.0001
     31  C         -7.3180    4.1070   -3.9880 C.2    20  ILE20       0.2617
     32  O         -6.4020    3.3070   -4.2100 O.2    20  ILE20      -0.2715
     33  N         -8.6100    3.8210   -4.1620 N.am   21  TRP21      -0.1938
     34  CA        -9.2240    2.5950   -4.7020 C.3    21  TRP21       0.2021
     35  CB        -9.7020    1.6830   -3.5450 C.3    21  TRP21       0.0612
     36  CG       -10.4970    2.2370   -2.3850 C.ar   21  TRP21       0.0007
     37  CD1      -10.6860    1.5470   -1.2340 C.ar   21  TRP21       0.0946
     38  NE1      -11.3350    2.3340   -0.3040 N.ar   21  TRP21      -0.2442
     39  CE2      -11.5720    3.5950   -0.7990 C.ar   21  TRP21       0.0810
     40  CZ2      -12.0950    4.7480   -0.2000 C.ar   21  TRP21       0.0191
     41  CH2      -12.2340    5.9130   -0.9670 C.ar   21  TRP21       0.0015
     42  CZ3      -11.8800    5.8920   -2.3260 C.ar   21  TRP21       0.0001
     43  CE3      -11.3480    4.7280   -2.9100 C.ar   21  TRP21       0.0012
     44  CD2      -11.1270    3.5500   -2.1550 C.ar   21  TRP21       0.0152
     45  C        -10.3230    2.8760   -5.7330 C.2    21  TRP21       0.3845
     46  O        -11.0800    1.9620   -6.0950 O.co2  21  TRP21      -0.2437
     47  OXT      -10.4270    4.0430   -6.2080 O.co2  21  TRP21      -0.2437
@<TRIPOS>BOND
     1    47    45   ar
     2    46    45   ar
     3    28    27    1
     4    45    34    1
     5    30    29    1
     6    34    33    1
     7    34    35    1
     8    27    29    1
     9    27    26    1
    10    32    31    2
    11    33    31   am
    12    31    26    1
    13    35    36    1
    14    26    25    1
    15    43    42   ar
    16    43    44   ar
    17    36    44   ar
    18    36    37   ar
    19    42    41   ar
    20    25    23   am
    21    44    39   ar
    22    24    23    2
    23     6     4    1
    24    37    38   ar
    25    23    18    1
    26     8     7    2
    27     1     2    1
    28    41    40   ar
    29    39    38   ar
    30    39    40   ar
    31     2     7    1
    32     2     3    1
    33    20    19    1
    34     7     9   am
    35     4     3    1
    36     4     5    1
    37    19    18    1
    38    19    21    1
    39    18    17    1
    40    17    15   am
    41     9    10    1
    42    15    10    1
    43    15    16    2
    44    10    11    1
    45    21    22    1
    46    13    12   ar
    47    11    12    1
    48    12    14   ar
