@<TRIPOS>MOLECULE
02228316B
 82 86 0 0 0
SMALL
GASTEIGER

@<TRIPOS>ATOM
      1 C          -7.6817   -0.5034    0.4952 C.3     1  LIG11       0.2491
      2 C          -6.9788    0.8289    0.6094 C.2     1  LIG11       0.3556
      3 N          -8.9109   -0.3172    1.3075 N.2     1  LIG11      -0.0687
      4 C          -6.8415   -1.6570    1.0554 C.3     1  LIG11       0.0059
      5 C          -8.0358   -0.8661   -0.9480 C.3     1  LIG11       0.0059
      6 N          -7.8666    1.6691    1.2266 N.am    1  LIG11      -0.1529
      7 O          -5.8240    1.0689    0.2910 O.2     1  LIG11      -0.2422
      8 C          -8.8920    0.9304    1.6758 C.2     1  LIG11       0.2916
      9 C          -6.4923   -2.5098   -0.1589 C.3     1  LIG11      -0.0481
     10 C          -7.7024   -2.3493   -1.0624 C.3     1  LIG11      -0.0481
     11 C          -7.4767    3.0294    1.5451 C.3     1  LIG11       0.1137
     12 C          -9.9512    1.4198    2.6453 C.3     1  LIG11       0.0509
     13 C          -7.2993    3.9222    0.3327 C.ar    1  LIG11      -0.0073
     14 C         -10.7607    2.6642    2.3042 C.3     1  LIG11      -0.0424
     15 C          -6.3033    4.9056    0.3619 C.ar    1  LIG11      -0.0491
     16 C          -8.0765    3.8266   -0.8153 C.ar    1  LIG11      -0.0544
     17 C         -11.4157    2.6416    0.9280 C.3     1  LIG11      -0.0554
     18 C          -5.9714    5.7001   -0.7563 C.ar    1  LIG11      -0.0138
     19 C          -7.8150    4.6488   -1.9166 C.ar    1  LIG11      -0.0533
     20 C         -12.0437    3.9933    0.6180 C.3     1  LIG11      -0.0653
     21 C          -6.7337    5.5509   -1.9476 C.ar    1  LIG11      -0.0106
     22 C          -4.8771    6.7504   -0.6040 C.3     1  LIG11       0.0732
     23 C          -6.4772    6.3382   -3.1832 C.ar    1  LIG11       0.0091
     24 O          -3.6500    6.3255   -0.0141 O.3     1  LIG11      -0.3754
     25 C          -6.0621    5.8340   -4.4383 C.ar    1  LIG11       0.1162
     26 C          -6.6451    7.7436   -3.0998 C.ar    1  LIG11      -0.0521
     27 C          -3.5070    6.2915    1.4000 C.3     1  LIG11       0.0453
     28 S          -5.9187    4.1016   -4.8613 S.O2    1  LIG11       0.0741
     29 C          -5.7359    6.7094   -5.4986 C.ar    1  LIG11      -0.0345
     30 C          -6.3362    8.6027   -4.1595 C.ar    1  LIG11      -0.0611
     31 C          -4.2044    7.3877    2.1883 C.3     1  LIG11      -0.0416
     32 N          -7.1309    3.9276   -6.0557 N.pl3   1  LIG11      -0.1965
     33 O          -6.2296    3.2389   -3.7517 O.2     1  LIG11      -0.1499
     34 O          -4.6636    3.9513   -5.5779 O.2     1  LIG11      -0.1499
     35 C          -5.8634    8.0867   -5.3548 C.ar    1  LIG11      -0.0599
     36 C          -8.4289    3.6367   -5.6463 C.ar    1  LIG11       0.1837
     37 C          -9.4567    4.5642   -5.3361 C.ar    1  LIG11       0.0342
     38 N          -8.8796    2.3829   -5.6375 N.ar    1  LIG11      -0.0614
     39 C         -10.5200    3.7566   -4.9865 C.ar    1  LIG11       0.1390
     40 C          -9.4356    6.0435   -5.3705 C.3     1  LIG11      -0.0330
     41 O         -10.1788    2.4550   -5.1716 O.2     1  LIG11      -0.3578
     42 C         -11.8865    4.0037   -4.4892 C.3     1  LIG11      -0.0034
     43 H          -5.9329   -1.3267    1.5709 H       1  LIG11       0.0316
     44 H          -7.4214   -2.2567    1.7668 H       1  LIG11       0.0316
     45 H          -9.0853   -0.6780   -1.1976 H       1  LIG11       0.0316
     46 H          -7.4202   -0.3006   -1.6583 H       1  LIG11       0.0316
     47 H          -5.5956   -2.1156   -0.6527 H       1  LIG11       0.0267
     48 H          -6.3038   -3.5535    0.1085 H       1  LIG11       0.0267
     49 H          -8.5366   -2.9544   -0.6870 H       1  LIG11       0.0267
     50 H          -7.4967   -2.6513   -2.0932 H       1  LIG11       0.0267
     51 H          -8.1742    3.4928    2.2398 H       1  LIG11       0.0783
     52 H          -6.5167    2.9552    2.0732 H       1  LIG11       0.0783
     53 H         -10.6547    0.5902    2.8042 H       1  LIG11       0.0387
     54 H          -9.4498    1.5774    3.6093 H       1  LIG11       0.0387
     55 H         -11.5486    2.7683    3.0628 H       1  LIG11       0.0271
     56 H         -10.1506    3.5634    2.4067 H       1  LIG11       0.0271
     57 H          -5.7574    5.0260    1.2887 H       1  LIG11       0.0625
     58 H          -8.8637    3.0850   -0.9047 H       1  LIG11       0.0622
     59 H         -10.6808    2.4079    0.1536 H       1  LIG11       0.0263
     60 H         -12.1826    1.8611    0.8904 H       1  LIG11       0.0263
     61 H          -8.4421    4.5195   -2.7919 H       1  LIG11       0.0624
     62 H         -11.2911    4.7904    0.6469 H       1  LIG11       0.0230
     63 H         -12.4921    3.9898   -0.3790 H       1  LIG11       0.0230
     64 H         -12.8243    4.2388    1.3459 H       1  LIG11       0.0230
     65 H          -4.5661    7.0875   -1.5950 H       1  LIG11       0.0610
     66 H          -5.2834    7.6367   -0.1051 H       1  LIG11       0.0610
     67 H          -7.0022    8.1879   -2.1710 H       1  LIG11       0.0624
     68 H          -3.7959    5.3028    1.7690 H       1  LIG11       0.0557
     69 H          -2.4316    6.3619    1.5964 H       1  LIG11       0.0557
     70 H          -5.3813    6.3137   -6.4505 H       1  LIG11       0.0637
     71 H          -6.4503    9.6770   -4.0390 H       1  LIG11       0.0618
     72 H          -5.2940    7.3074    2.1160 H       1  LIG11       0.0252
     73 H          -3.9411    7.3179    3.2492 H       1  LIG11       0.0252
     74 H          -3.9199    8.3775    1.8205 H       1  LIG11       0.0252
     75 H          -6.7645    3.2229   -6.6974 H       1  LIG11       0.1753
     76 H          -5.5992    8.7477   -6.1775 H       1  LIG11       0.0618
     77 H          -8.6339    6.4181   -6.0118 H       1  LIG11       0.0280
     78 H         -10.3764    6.4345   -5.7730 H       1  LIG11       0.0280
     79 H          -9.3064    6.4520   -4.3644 H       1  LIG11       0.0280
     80 H         -12.0845    5.0750   -4.3826 H       1  LIG11       0.0309
     81 H         -12.6296    3.5876   -5.1758 H       1  LIG11       0.0309
     82 H         -12.0241    3.5387   -3.5073 H       1  LIG11       0.0309
@<TRIPOS>BOND
     1     1     5    1
     2     1     4    1
     3     1     2    1
     4     1     3    1
     5     2     6   am
     6     2     7    2
     7     3     8    2
     8     4     9    1
     9     5    10    1
    10     6     8    1
    11     6    11    1
    12     8    12    1
    13     9    10    1
    14    11    13    1
    15    12    14    1
    16    13    15   ar
    17    13    16   ar
    18    14    17    1
    19    15    18   ar
    20    16    19   ar
    21    17    20    1
    22    18    21   ar
    23    18    22    1
    24    19    21   ar
    25    21    23    1
    26    22    24    1
    27    23    26   ar
    28    23    25   ar
    29    24    27    1
    30    25    29   ar
    31    25    28    1
    32    26    30   ar
    33    27    31    1
    34    28    34    2
    35    28    33    2
    36    28    32    1
    37    29    35   ar
    38    30    35   ar
    39    32    36    1
    40    36    37   ar
    41    36    38   ar
    42    37    39   ar
    43    37    40    1
    44    38    41   ar
    45    39    41   ar
    46    39    42    1
    47     4    43    1
    48     4    44    1
    49     5    45    1
    50     5    46    1
    51     9    47    1
    52     9    48    1
    53    10    49    1
    54    10    50    1
    55    11    51    1
    56    11    52    1
    57    12    53    1
    58    12    54    1
    59    14    55    1
    60    14    56    1
    61    15    57    1
    62    16    58    1
    63    17    59    1
    64    17    60    1
    65    19    61    1
    66    20    62    1
    67    20    63    1
    68    20    64    1
    69    22    65    1
    70    22    66    1
    71    26    67    1
    72    27    68    1
    73    27    69    1
    74    29    70    1
    75    30    71    1
    76    31    72    1
    77    31    73    1
    78    31    74    1
    79    32    75    1
    80    35    76    1
    81    40    77    1
    82    40    78    1
    83    40    79    1
    84    42    80    1
    85    42    81    1
    86    42    82    1
@<TRIPOS>MOLECULE
../1EDN/3STEPMIN_17-21.pdb
 47 48 0 0 0
SMALL
GASTEIGER

@<TRIPOS>ATOM
      1  N         -5.4290    0.8830   -1.1740 N.3    17  LEU17      -0.1231
      2  CA        -6.8230    0.6710   -0.7980 C.3    17  LEU17       0.1693
      3  CB        -6.9230   -0.4370    0.2770 C.3    17  LEU17       0.0284
      4  CG        -6.4950   -1.8450   -0.1910 C.3    17  LEU17       0.0019
      5  CD1       -6.5150   -2.8060    0.9980 C.3    17  LEU17       0.0001
      6  CD2       -7.4310   -2.4140   -1.2600 C.3    17  LEU17       0.0001
      7  C         -7.3990    2.0370   -0.3760 C.2    17  LEU17       0.2592
      8  O         -7.4670    2.9330   -1.2040 O.2    17  LEU17      -0.2718
      9  N         -7.7380    2.2560    0.8970 N.am   18  ASP18      -0.1960
     10  CA        -8.5130    3.4280    1.3730 C.3    18  ASP18       0.1840
     11  CB        -9.0510    3.1310    2.7840 C.3    18  ASP18       0.1450
     12  CG       -10.5470    3.4340    2.8500 C.2    18  ASP18       0.3671
     13  OD1      -11.3300    2.4930    2.5610 O.co2  18  ASP18      -0.2456
     14  OD2      -10.9050    4.5930    3.1470 O.co2  18  ASP18      -0.2456
     15  C         -7.8270    4.8120    1.2910 C.2    18  ASP18       0.2622
     16  O         -8.3890    5.8210    1.7350 O.2    18  ASP18      -0.2715
     17  N         -6.6250    4.8510    0.7010 N.am   19  ILE19      -0.1963
     18  CA        -5.9180    6.0210    0.1680 C.3    19  ILE19       0.1727
     19  CB        -4.3960    5.7260    0.0740 C.3    19  ILE19       0.0290
     20  CG2       -3.6150    6.9530   -0.4300 C.3    19  ILE19       0.0023
     21  CG1       -3.7730    5.2100    1.3920 C.3    19  ILE19       0.0022
     22  CD1       -3.8620    6.1700    2.5820 C.3    19  ILE19       0.0001
     23  C         -6.4970    6.4050   -1.2110 C.2    19  ILE19       0.2616
     24  O         -7.0070    7.5130   -1.3720 O.2    19  ILE19      -0.2715
     25  N         -6.3950    5.4980   -2.1940 N.am   20  ILE20      -0.1963
     26  CA        -6.9990    5.5490   -3.5400 C.3    20  ILE20       0.1727
     27  CB        -6.0900    6.2460   -4.5940 C.3    20  ILE20       0.0290
     28  CG2       -6.7980    6.2490   -5.9680 C.3    20  ILE20       0.0023
     29  CG1       -5.7140    7.6970   -4.2070 C.3    20  ILE20       0.0022
     30  CD1       -4.7810    8.4150   -5.1910 C.3    20  ILE20       0.0001
     31  C         -7.3180    4.1070   -3.9880 C.2    20  ILE20       0.2617
     32  O         -6.4020    3.3070   -4.2100 O.2    20  ILE20      -0.2715
     33  N         -8.6100    3.8210   -4.1620 N.am   21  TRP21      -0.1938
     34  CA        -9.2240    2.5950   -4.7020 C.3    21  TRP21       0.2021
     35  CB        -9.7020    1.6830   -3.5450 C.3    21  TRP21       0.0612
     36  CG       -10.4970    2.2370   -2.3850 C.ar   21  TRP21       0.0007
     37  CD1      -10.6860    1.5470   -1.2340 C.ar   21  TRP21       0.0946
     38  NE1      -11.3350    2.3340   -0.3040 N.ar   21  TRP21      -0.2442
     39  CE2      -11.5720    3.5950   -0.7990 C.ar   21  TRP21       0.0810
     40  CZ2      -12.0950    4.7480   -0.2000 C.ar   21  TRP21       0.0191
     41  CH2      -12.2340    5.9130   -0.9670 C.ar   21  TRP21       0.0015
     42  CZ3      -11.8800    5.8920   -2.3260 C.ar   21  TRP21       0.0001
     43  CE3      -11.3480    4.7280   -2.9100 C.ar   21  TRP21       0.0012
     44  CD2      -11.1270    3.5500   -2.1550 C.ar   21  TRP21       0.0152
     45  C        -10.3230    2.8760   -5.7330 C.2    21  TRP21       0.3845
     46  O        -11.0800    1.9620   -6.0950 O.co2  21  TRP21      -0.2437
     47  OXT      -10.4270    4.0430   -6.2080 O.co2  21  TRP21      -0.2437
@<TRIPOS>BOND
     1    47    45   ar
     2    46    45   ar
     3    28    27    1
     4    45    34    1
     5    30    29    1
     6    34    33    1
     7    34    35    1
     8    27    29    1
     9    27    26    1
    10    32    31    2
    11    33    31   am
    12    31    26    1
    13    35    36    1
    14    26    25    1
    15    43    42   ar
    16    43    44   ar
    17    36    44   ar
    18    36    37   ar
    19    42    41   ar
    20    25    23   am
    21    44    39   ar
    22    24    23    2
    23     6     4    1
    24    37    38   ar
    25    23    18    1
    26     8     7    2
    27     1     2    1
    28    41    40   ar
    29    39    38   ar
    30    39    40   ar
    31     2     7    1
    32     2     3    1
    33    20    19    1
    34     7     9   am
    35     4     3    1
    36     4     5    1
    37    19    18    1
    38    19    21    1
    39    18    17    1
    40    17    15   am
    41     9    10    1
    42    15    10    1
    43    15    16    2
    44    10    11    1
    45    21    22    1
    46    13    12   ar
    47    11    12    1
    48    12    14   ar
