@<TRIPOS>MOLECULE
16219006
 85 88 0 0 0
SMALL
GASTEIGER

@<TRIPOS>ATOM
      1 O          -7.1321    3.0302   -4.8015 O.2     1  PRO11      -0.2738
      2 O         -10.5318    5.3059   -3.0928 O.2     5  ASP55      -0.2735
      3 O          -6.9521    7.3476   -2.1868 O.2     2  VAL22      -0.2738
      4 O         -10.3768    1.7139    0.3541 O.2     4  TRP44      -0.2738
      5 O          -6.6450    3.0798    0.1540 O.2     3  LEU33      -0.2738
      6 OD1       -11.0633    6.2865    0.0683 O.co2   5  ASP55      -0.5497
      7 OD2       -13.0404    7.1069   -0.7463 O.co2   5  ASP55      -0.5497
      8 N         -10.2032    3.0924   -3.3980 N.am    1  PRO11      -0.2884
      9 N          -7.9511    5.0680   -4.1671 N.am    2  VAL22      -0.3022
     10 N         -10.4233    3.8971   -0.3008 N.am    5  ASP55      -0.3021
     11 N          -6.2710    5.2459   -1.5890 N.am    3  LEU33      -0.3025
     12 N          -8.1942    4.4395    1.1689 N.am    4  TRP44      -0.3022
     13 NE1       -12.2473    1.3363    4.1457 N.ar    4  TRP44      -0.3604
     14 CA         -9.5671    3.2906   -4.7004 C.3     1  PRO11       0.1023
     15 CB         -9.6861    1.9208   -5.3735 C.3     1  PRO11      -0.0243
     16 CG         -9.6376    0.9467   -4.2022 C.3     1  PRO11      -0.0350
     17 CD        -10.4015    1.6804   -3.1113 C.3     1  PRO11       0.0156
     18 C          -8.0957    3.7539   -4.5549 C.2     1  PRO11       0.2342
     19 C         -10.7274    4.1567   -2.6858 C.2     5  ASP55       0.2369
     20 CA         -6.6476    5.7007   -3.9625 C.3     2  VAL22       0.1017
     21 CA        -11.4310    3.8430   -1.3425 C.3     5  ASP55       0.1047
     22 CB         -6.3989    6.8421   -4.9752 C.3     2  VAL22      -0.0197
     23 CA         -6.4152    5.4720   -0.1553 C.3     3  LEU33       0.0996
     24 C          -6.6289    6.2072   -2.5076 C.2     2  VAL22       0.2342
     25 CB        -12.5674    4.8192   -1.0487 C.3     5  ASP55       0.0138
     26 CA         -9.0364    3.3218    1.6271 C.3     4  TRP44       0.1034
     27 CB         -5.0463    5.6970    0.5029 C.3     3  LEU33      -0.0236
     28 CG         -5.0909    5.9062    2.0318 C.3     3  LEU33      -0.0446
     29 C          -9.9760    2.8697    0.4805 C.2     4  TRP44       0.2343
     30 CB         -9.8410    3.7872    2.8462 C.3     4  TRP44       0.0013
     31 C          -7.0818    4.2043    0.3955 C.2     3  LEU33       0.2340
     32 CG1        -5.0483    7.5274   -4.7192 C.3     2  VAL22      -0.0605
     33 CG2        -6.4147    6.3216   -6.4175 C.3     2  VAL22      -0.0605
     34 CG        -10.5924    2.6931    3.5325 C.ar    4  TRP44      -0.0201
     35 CG        -12.1687    6.2141   -0.5553 C.2     5  ASP55       0.0440
     36 CD1        -5.8802    7.1542    2.4289 C.3     3  LEU33      -0.0626
     37 CD2        -3.6678    5.9979    2.5899 C.3     3  LEU33      -0.0626
     38 CD2       -10.0776    1.7361    4.4628 C.ar    4  TRP44       0.0029
     39 CD1       -11.9363    2.4195    3.3741 C.ar    4  TRP44       0.0060
     40 CE2       -11.1361    0.9038    4.8305 C.ar    4  TRP44       0.0467
     41 CE3        -8.8063    1.4945    5.0232 C.ar    4  TRP44      -0.0523
     42 CZ2       -10.9881   -0.1566    5.7321 C.ar    4  TRP44      -0.0378
     43 CZ3        -8.6413    0.4386    5.9272 C.ar    4  TRP44      -0.0611
     44 CH2        -9.7186   -0.3732    6.2755 C.ar    4  TRP44      -0.0598
     45 H          -8.7856    5.5436   -3.8032 H       2  VAL22       0.1495
     46 H         -10.2431    4.8655   -0.0081 H       5  ASP55       0.1495
     47 H          -6.1921    4.2800   -1.8980 H       3  LEU33       0.1495
     48 H          -8.6613    5.3378    1.0467 H       4  TRP44       0.1495
     49 HE1       -13.1596    0.9096    4.2008 H       4  TRP44       0.1653
     50 HA        -10.1061    4.0495   -5.2799 H       1  PRO11       0.0597
     51 HB1       -10.6616    1.8387   -5.8696 H       1  PRO11       0.0288
     52 HB2        -8.9118    1.7185   -6.1189 H       1  PRO11       0.0288
     53 HG1       -10.0778   -0.0259   -4.4395 H       1  PRO11       0.0281
     54 HG2        -8.5995    0.7835   -3.8908 H       1  PRO11       0.0281
     55 HD1       -10.0339    1.4272   -2.1169 H       1  PRO11       0.0465
     56 HD2       -11.4742    1.4654   -3.1710 H       1  PRO11       0.0465
     57 HA         -5.8544    4.9508   -4.0727 H       2  VAL22       0.0597
     58 HA        -11.8606    2.8377   -1.3784 H       5  ASP55       0.0598
     59 HB         -7.1899    7.5973   -4.8793 H       2  VAL22       0.0318
     60 HA         -7.0630    6.3390    0.0044 H       3  LEU33       0.0594
     61 HB1       -13.2043    4.9201   -1.9367 H       5  ASP55       0.0348
     62 HB2       -13.1955    4.3952   -0.2531 H       5  ASP55       0.0348
     63 HA         -8.3816    2.4776    1.8736 H       4  TRP44       0.0598
     64 HB1        -4.3992    4.8354    0.2866 H       3  LEU33       0.0290
     65 HB2        -4.5607    6.5620    0.0313 H       3  LEU33       0.0290
     66 HG         -5.5669    5.0362    2.5001 H       3  LEU33       0.0296
     67 HB1        -9.1588    4.2476    3.5742 H       4  TRP44       0.0337
     68 HB2       -10.5411    4.5823    2.5565 H       4  TRP44       0.0337
     69 HG11       -4.2246    6.8064   -4.7616 H       2  VAL22       0.0233
     70 HG12       -4.8574    8.3040   -5.4674 H       2  VAL22       0.0233
     71 HG13       -5.0182    8.0136   -3.7395 H       2  VAL22       0.0233
     72 HG21       -5.6598    5.5411   -6.5642 H       2  VAL22       0.0233
     73 HG22       -7.3916    5.9063   -6.6826 H       2  VAL22       0.0233
     74 HG23       -6.2016    7.1314   -7.1240 H       2  VAL22       0.0233
     75 HD11       -5.4704    8.0512    1.9526 H       3  LEU33       0.0232
     76 HD12       -6.9337    7.0693    2.1478 H       3  LEU33       0.0232
     77 HD13       -5.8480    7.3031    3.5138 H       3  LEU33       0.0232
     78 HD21       -3.1326    6.8603    2.1786 H       3  LEU33       0.0232
     79 HD22       -3.6848    6.0985    3.6807 H       3  LEU33       0.0232
     80 HD23       -3.0960    5.0953    2.3498 H       3  LEU33       0.0232
     81 HD1       -12.6855    2.8972    2.7551 H       4  TRP44       0.0810
     82 HE3        -7.9594    2.1180    4.7529 H       4  TRP44       0.0624
     83 HZ2       -11.8252   -0.7923    5.9983 H       4  TRP44       0.0638
     84 HZ3        -7.6609    0.2507    6.3563 H       4  TRP44       0.0618
     85 HH2        -9.5706   -1.1907    6.9762 H       4  TRP44       0.0618
@<TRIPOS>BOND
     1     1    18    2
     2     2    19    2
     3     3    24    2
     4     4    29    2
     5     5    31    2
     6     6    35   ar
     7     7    35   ar
     8     8    14    1
     9     8    17    1
    10     8    19   am
    11     9    18   am
    12     9    20    1
    13    10    21    1
    14    10    29   am
    15    11    23    1
    16    11    24   am
    17    12    26    1
    18    12    31   am
    19    13    39   ar
    20    13    40   ar
    21    14    15    1
    22    14    18    1
    23    15    16    1
    24    16    17    1
    25    19    21    1
    26    20    22    1
    27    20    24    1
    28    21    25    1
    29    22    32    1
    30    22    33    1
    31    23    27    1
    32    23    31    1
    33    25    35    1
    34    26    29    1
    35    26    30    1
    36    27    28    1
    37    28    36    1
    38    28    37    1
    39    30    34    1
    40    34    38   ar
    41    34    39   ar
    42    38    40   ar
    43    38    41   ar
    44    40    42   ar
    45    41    43   ar
    46    42    44   ar
    47    43    44   ar
    48     9    45    1
    49    10    46    1
    50    11    47    1
    51    12    48    1
    52    13    49    1
    53    14    50    1
    54    15    51    1
    55    15    52    1
    56    16    53    1
    57    16    54    1
    58    17    55    1
    59    17    56    1
    60    20    57    1
    61    21    58    1
    62    22    59    1
    63    23    60    1
    64    25    61    1
    65    25    62    1
    66    26    63    1
    67    27    64    1
    68    27    65    1
    69    28    66    1
    70    30    67    1
    71    30    68    1
    72    32    69    1
    73    32    70    1
    74    32    71    1
    75    33    72    1
    76    33    73    1
    77    33    74    1
    78    36    75    1
    79    36    76    1
    80    36    77    1
    81    37    78    1
    82    37    79    1
    83    37    80    1
    84    39    81    1
    85    41    82    1
    86    42    83    1
    87    43    84    1
    88    44    85    1
@<TRIPOS>MOLECULE
../1EDN/3STEPMIN_17-21.pdb
 47 48 0 0 0
SMALL
GASTEIGER

@<TRIPOS>ATOM
      1  N         -5.4290    0.8830   -1.1740 N.3    17  LEU17      -0.1231
      2  CA        -6.8230    0.6710   -0.7980 C.3    17  LEU17       0.1693
      3  CB        -6.9230   -0.4370    0.2770 C.3    17  LEU17       0.0284
      4  CG        -6.4950   -1.8450   -0.1910 C.3    17  LEU17       0.0019
      5  CD1       -6.5150   -2.8060    0.9980 C.3    17  LEU17       0.0001
      6  CD2       -7.4310   -2.4140   -1.2600 C.3    17  LEU17       0.0001
      7  C         -7.3990    2.0370   -0.3760 C.2    17  LEU17       0.2592
      8  O         -7.4670    2.9330   -1.2040 O.2    17  LEU17      -0.2718
      9  N         -7.7380    2.2560    0.8970 N.am   18  ASP18      -0.1960
     10  CA        -8.5130    3.4280    1.3730 C.3    18  ASP18       0.1840
     11  CB        -9.0510    3.1310    2.7840 C.3    18  ASP18       0.1450
     12  CG       -10.5470    3.4340    2.8500 C.2    18  ASP18       0.3671
     13  OD1      -11.3300    2.4930    2.5610 O.co2  18  ASP18      -0.2456
     14  OD2      -10.9050    4.5930    3.1470 O.co2  18  ASP18      -0.2456
     15  C         -7.8270    4.8120    1.2910 C.2    18  ASP18       0.2622
     16  O         -8.3890    5.8210    1.7350 O.2    18  ASP18      -0.2715
     17  N         -6.6250    4.8510    0.7010 N.am   19  ILE19      -0.1963
     18  CA        -5.9180    6.0210    0.1680 C.3    19  ILE19       0.1727
     19  CB        -4.3960    5.7260    0.0740 C.3    19  ILE19       0.0290
     20  CG2       -3.6150    6.9530   -0.4300 C.3    19  ILE19       0.0023
     21  CG1       -3.7730    5.2100    1.3920 C.3    19  ILE19       0.0022
     22  CD1       -3.8620    6.1700    2.5820 C.3    19  ILE19       0.0001
     23  C         -6.4970    6.4050   -1.2110 C.2    19  ILE19       0.2616
     24  O         -7.0070    7.5130   -1.3720 O.2    19  ILE19      -0.2715
     25  N         -6.3950    5.4980   -2.1940 N.am   20  ILE20      -0.1963
     26  CA        -6.9990    5.5490   -3.5400 C.3    20  ILE20       0.1727
     27  CB        -6.0900    6.2460   -4.5940 C.3    20  ILE20       0.0290
     28  CG2       -6.7980    6.2490   -5.9680 C.3    20  ILE20       0.0023
     29  CG1       -5.7140    7.6970   -4.2070 C.3    20  ILE20       0.0022
     30  CD1       -4.7810    8.4150   -5.1910 C.3    20  ILE20       0.0001
     31  C         -7.3180    4.1070   -3.9880 C.2    20  ILE20       0.2617
     32  O         -6.4020    3.3070   -4.2100 O.2    20  ILE20      -0.2715
     33  N         -8.6100    3.8210   -4.1620 N.am   21  TRP21      -0.1938
     34  CA        -9.2240    2.5950   -4.7020 C.3    21  TRP21       0.2021
     35  CB        -9.7020    1.6830   -3.5450 C.3    21  TRP21       0.0612
     36  CG       -10.4970    2.2370   -2.3850 C.ar   21  TRP21       0.0007
     37  CD1      -10.6860    1.5470   -1.2340 C.ar   21  TRP21       0.0946
     38  NE1      -11.3350    2.3340   -0.3040 N.ar   21  TRP21      -0.2442
     39  CE2      -11.5720    3.5950   -0.7990 C.ar   21  TRP21       0.0810
     40  CZ2      -12.0950    4.7480   -0.2000 C.ar   21  TRP21       0.0191
     41  CH2      -12.2340    5.9130   -0.9670 C.ar   21  TRP21       0.0015
     42  CZ3      -11.8800    5.8920   -2.3260 C.ar   21  TRP21       0.0001
     43  CE3      -11.3480    4.7280   -2.9100 C.ar   21  TRP21       0.0012
     44  CD2      -11.1270    3.5500   -2.1550 C.ar   21  TRP21       0.0152
     45  C        -10.3230    2.8760   -5.7330 C.2    21  TRP21       0.3845
     46  O        -11.0800    1.9620   -6.0950 O.co2  21  TRP21      -0.2437
     47  OXT      -10.4270    4.0430   -6.2080 O.co2  21  TRP21      -0.2437
@<TRIPOS>BOND
     1    47    45   ar
     2    46    45   ar
     3    28    27    1
     4    45    34    1
     5    30    29    1
     6    34    33    1
     7    34    35    1
     8    27    29    1
     9    27    26    1
    10    32    31    2
    11    33    31   am
    12    31    26    1
    13    35    36    1
    14    26    25    1
    15    43    42   ar
    16    43    44   ar
    17    36    44   ar
    18    36    37   ar
    19    42    41   ar
    20    25    23   am
    21    44    39   ar
    22    24    23    2
    23     6     4    1
    24    37    38   ar
    25    23    18    1
    26     8     7    2
    27     1     2    1
    28    41    40   ar
    29    39    38   ar
    30    39    40   ar
    31     2     7    1
    32     2     3    1
    33    20    19    1
    34     7     9   am
    35     4     3    1
    36     4     5    1
    37    19    18    1
    38    19    21    1
    39    18    17    1
    40    17    15   am
    41     9    10    1
    42    15    10    1
    43    15    16    2
    44    10    11    1
    45    21    22    1
    46    13    12   ar
    47    11    12    1
    48    12    14   ar
