@<TRIPOS>MOLECULE
159594
 75 78 0 0 0
SMALL
GASTEIGER

@<TRIPOS>ATOM
      1 O          -8.0235    5.5217    2.3780 O.co2   1  LIG11      -0.5493
      2 O          -6.1467    4.2275    2.5335 O.co2   1  LIG11      -0.5493
      3 O          -6.6102    5.8896   -5.2043 O.3     1  LIG11      -0.4526
      4 O         -11.9505    4.4024   -1.9606 O.2     1  LIG11      -0.2697
      5 O          -4.8251    7.4736   -4.8559 O.3     1  LIG11      -0.4526
      6 O          -6.1866   -1.8412   -0.2542 O.3     1  LIG11      -0.4951
      7 N          -9.0992    3.8407   -0.6561 N.4     1  LIG11       0.2481
      8 N         -11.0336    2.5392   -2.9628 N.am    1  LIG11      -0.2971
      9 C          -7.1071    4.5973    0.4332 C.3     1  LIG11       0.0574
     10 C          -7.7338    5.7816   -0.3136 C.3     1  LIG11       0.0378
     11 C          -8.1401    3.4695    0.4690 C.3     1  LIG11       0.0143
     12 C          -9.1783    5.3513   -0.5597 C.3     1  LIG11      -0.0230
     13 C          -6.9340    6.1743   -1.5503 C.ar    1  LIG11      -0.0347
     14 C          -7.5883    2.0672    0.2805 C.ar    1  LIG11       0.0011
     15 C         -10.4512    3.1732   -0.5797 C.3     1  LIG11       0.0468
     16 C          -7.0633    4.8341    1.9310 C.2     1  LIG11       0.0513
     17 C          -7.2180    5.7262   -2.8500 C.ar    1  LIG11      -0.0125
     18 C         -11.2397    3.3963   -1.8772 C.2     1  LIG11       0.2608
     19 C          -5.8578    7.0823   -1.3630 C.ar    1  LIG11      -0.0544
     20 C          -7.8103    1.1126    1.2877 C.ar    1  LIG11      -0.0498
     21 C          -6.8764    1.6765   -0.8613 C.ar    1  LIG11      -0.0498
     22 C          -6.4504    6.2120   -3.8920 C.ar    1  LIG11       0.1665
     23 C          -5.1035    7.5609   -2.4388 C.ar    1  LIG11      -0.0159
     24 C          -5.4295    7.1091   -3.6949 C.ar    1  LIG11       0.1662
     25 C          -7.3605   -0.2038    1.1502 C.ar    1  LIG11      -0.0195
     26 C          -6.4342    0.3561   -0.9978 C.ar    1  LIG11      -0.0195
     27 C         -10.3457    1.2399   -2.8813 C.3     1  LIG11       0.0148
     28 C         -11.7895    2.8389   -4.1947 C.3     1  LIG11       0.0148
     29 C          -6.6715   -0.5888    0.0037 C.ar    1  LIG11       0.1201
     30 C         -11.2560    0.0087   -2.9747 C.3     1  LIG11      -0.0374
     31 C         -11.0417    2.5980   -5.5110 C.3     1  LIG11      -0.0374
     32 C          -5.5954    6.7188   -5.8120 C.3     1  LIG11       0.2332
     33 C         -12.1305   -0.2587   -1.7473 C.3     1  LIG11      -0.0545
     34 C          -9.7852    3.4513   -5.7011 C.3     1  LIG11      -0.0545
     35 C         -13.4156    0.5522   -1.7079 C.3     1  LIG11      -0.0652
     36 C         -10.0786    4.9404   -5.7915 C.3     1  LIG11      -0.0652
     37 C          -6.1966   -2.7628    0.8315 C.3     1  LIG11       0.0788
     38 H          -8.6534    3.5867   -1.5401 H       1  LIG11       0.2045
     39 H          -6.1216    4.3066    0.0536 H       1  LIG11       0.0427
     40 H          -7.7752    6.6934    0.2975 H       1  LIG11       0.0409
     41 H          -8.7817    3.4627    1.3622 H       1  LIG11       0.0911
     42 H          -9.8188    5.5902    0.2970 H       1  LIG11       0.0821
     43 H          -9.6270    5.7429   -1.4767 H       1  LIG11       0.0821
     44 H         -11.0026    3.6139    0.2591 H       1  LIG11       0.0913
     45 H         -10.3198    2.1159   -0.3508 H       1  LIG11       0.0913
     46 H          -8.0234    5.0436   -3.0836 H       1  LIG11       0.0658
     47 H          -5.6159    7.4379   -0.3599 H       1  LIG11       0.0622
     48 H          -8.3149    1.3935    2.2129 H       1  LIG11       0.0623
     49 H          -6.6305    2.3891   -1.6449 H       1  LIG11       0.0623
     50 H          -4.2971    8.2699   -2.2874 H       1  LIG11       0.0655
     51 H          -7.5539   -0.8947    1.9645 H       1  LIG11       0.0654
     52 H          -5.8721    0.0632   -1.8822 H       1  LIG11       0.0654
     53 H          -9.7399    1.1696   -1.9785 H       1  LIG11       0.0464
     54 H          -9.6218    1.2073   -3.7025 H       1  LIG11       0.0464
     55 H         -12.1488    3.8730   -4.1792 H       1  LIG11       0.0464
     56 H         -12.6901    2.2147   -4.1739 H       1  LIG11       0.0464
     57 H         -10.5957   -0.8604   -3.0946 H       1  LIG11       0.0280
     58 H         -11.8743    0.0414   -3.8785 H       1  LIG11       0.0280
     59 H         -11.7334    2.7979   -6.3393 H       1  LIG11       0.0280
     60 H         -10.7680    1.5410   -5.6020 H       1  LIG11       0.0280
     61 H          -6.0827    7.4177   -6.5021 H       1  LIG11       0.1166
     62 H          -4.9147    6.0776   -6.3832 H       1  LIG11       0.1166
     63 H         -11.5592   -0.1029   -0.8257 H       1  LIG11       0.0263
     64 H         -12.4137   -1.3189   -1.7632 H       1  LIG11       0.0263
     65 H          -9.2963    3.1376   -6.6314 H       1  LIG11       0.0263
     66 H          -9.0678    3.2686   -4.8938 H       1  LIG11       0.0263
     67 H         -13.2250    1.6114   -1.5296 H       1  LIG11       0.0230
     68 H         -14.0569    0.1961   -0.8949 H       1  LIG11       0.0230
     69 H         -13.9752    0.4532   -2.6435 H       1  LIG11       0.0230
     70 H         -10.8418    5.1467   -6.5484 H       1  LIG11       0.0230
     71 H          -9.1730    5.4856   -6.0730 H       1  LIG11       0.0230
     72 H         -10.4222    5.3384   -4.8323 H       1  LIG11       0.0230
     73 H          -5.6894   -3.6746    0.5018 H       1  LIG11       0.0660
     74 H          -7.2215   -3.0334    1.1060 H       1  LIG11       0.0660
     75 H          -5.6475   -2.3696    1.6941 H       1  LIG11       0.0660
@<TRIPOS>BOND
     1     1    16   ar
     2     2    16   ar
     3     3    22    1
     4     3    32    1
     5     4    18    2
     6     5    24    1
     7     5    32    1
     8     6    29    1
     9     6    37    1
    10     7    11    1
    11     7    12    1
    12     7    15    1
    13     8    18   am
    14     8    27    1
    15     8    28    1
    16     9    10    1
    17     9    11    1
    18     9    16    1
    19    10    12    1
    20    10    13    1
    21    11    14    1
    22    13    17   ar
    23    13    19   ar
    24    14    20   ar
    25    14    21   ar
    26    15    18    1
    27    17    22   ar
    28    19    23   ar
    29    20    25   ar
    30    21    26   ar
    31    22    24   ar
    32    23    24   ar
    33    25    29   ar
    34    26    29   ar
    35    27    30    1
    36    28    31    1
    37    30    33    1
    38    31    34    1
    39    33    35    1
    40    34    36    1
    41     7    38    1
    42     9    39    1
    43    10    40    1
    44    11    41    1
    45    12    42    1
    46    12    43    1
    47    15    44    1
    48    15    45    1
    49    17    46    1
    50    19    47    1
    51    20    48    1
    52    21    49    1
    53    23    50    1
    54    25    51    1
    55    26    52    1
    56    27    53    1
    57    27    54    1
    58    28    55    1
    59    28    56    1
    60    30    57    1
    61    30    58    1
    62    31    59    1
    63    31    60    1
    64    32    61    1
    65    32    62    1
    66    33    63    1
    67    33    64    1
    68    34    65    1
    69    34    66    1
    70    35    67    1
    71    35    68    1
    72    35    69    1
    73    36    70    1
    74    36    71    1
    75    36    72    1
    76    37    73    1
    77    37    74    1
    78    37    75    1
@<TRIPOS>MOLECULE
../1EDN/3STEPMIN_17-21.pdb
 47 48 0 0 0
SMALL
GASTEIGER

@<TRIPOS>ATOM
      1  N         -5.4290    0.8830   -1.1740 N.3    17  LEU17      -0.1231
      2  CA        -6.8230    0.6710   -0.7980 C.3    17  LEU17       0.1693
      3  CB        -6.9230   -0.4370    0.2770 C.3    17  LEU17       0.0284
      4  CG        -6.4950   -1.8450   -0.1910 C.3    17  LEU17       0.0019
      5  CD1       -6.5150   -2.8060    0.9980 C.3    17  LEU17       0.0001
      6  CD2       -7.4310   -2.4140   -1.2600 C.3    17  LEU17       0.0001
      7  C         -7.3990    2.0370   -0.3760 C.2    17  LEU17       0.2592
      8  O         -7.4670    2.9330   -1.2040 O.2    17  LEU17      -0.2718
      9  N         -7.7380    2.2560    0.8970 N.am   18  ASP18      -0.1960
     10  CA        -8.5130    3.4280    1.3730 C.3    18  ASP18       0.1840
     11  CB        -9.0510    3.1310    2.7840 C.3    18  ASP18       0.1450
     12  CG       -10.5470    3.4340    2.8500 C.2    18  ASP18       0.3671
     13  OD1      -11.3300    2.4930    2.5610 O.co2  18  ASP18      -0.2456
     14  OD2      -10.9050    4.5930    3.1470 O.co2  18  ASP18      -0.2456
     15  C         -7.8270    4.8120    1.2910 C.2    18  ASP18       0.2622
     16  O         -8.3890    5.8210    1.7350 O.2    18  ASP18      -0.2715
     17  N         -6.6250    4.8510    0.7010 N.am   19  ILE19      -0.1963
     18  CA        -5.9180    6.0210    0.1680 C.3    19  ILE19       0.1727
     19  CB        -4.3960    5.7260    0.0740 C.3    19  ILE19       0.0290
     20  CG2       -3.6150    6.9530   -0.4300 C.3    19  ILE19       0.0023
     21  CG1       -3.7730    5.2100    1.3920 C.3    19  ILE19       0.0022
     22  CD1       -3.8620    6.1700    2.5820 C.3    19  ILE19       0.0001
     23  C         -6.4970    6.4050   -1.2110 C.2    19  ILE19       0.2616
     24  O         -7.0070    7.5130   -1.3720 O.2    19  ILE19      -0.2715
     25  N         -6.3950    5.4980   -2.1940 N.am   20  ILE20      -0.1963
     26  CA        -6.9990    5.5490   -3.5400 C.3    20  ILE20       0.1727
     27  CB        -6.0900    6.2460   -4.5940 C.3    20  ILE20       0.0290
     28  CG2       -6.7980    6.2490   -5.9680 C.3    20  ILE20       0.0023
     29  CG1       -5.7140    7.6970   -4.2070 C.3    20  ILE20       0.0022
     30  CD1       -4.7810    8.4150   -5.1910 C.3    20  ILE20       0.0001
     31  C         -7.3180    4.1070   -3.9880 C.2    20  ILE20       0.2617
     32  O         -6.4020    3.3070   -4.2100 O.2    20  ILE20      -0.2715
     33  N         -8.6100    3.8210   -4.1620 N.am   21  TRP21      -0.1938
     34  CA        -9.2240    2.5950   -4.7020 C.3    21  TRP21       0.2021
     35  CB        -9.7020    1.6830   -3.5450 C.3    21  TRP21       0.0612
     36  CG       -10.4970    2.2370   -2.3850 C.ar   21  TRP21       0.0007
     37  CD1      -10.6860    1.5470   -1.2340 C.ar   21  TRP21       0.0946
     38  NE1      -11.3350    2.3340   -0.3040 N.ar   21  TRP21      -0.2442
     39  CE2      -11.5720    3.5950   -0.7990 C.ar   21  TRP21       0.0810
     40  CZ2      -12.0950    4.7480   -0.2000 C.ar   21  TRP21       0.0191
     41  CH2      -12.2340    5.9130   -0.9670 C.ar   21  TRP21       0.0015
     42  CZ3      -11.8800    5.8920   -2.3260 C.ar   21  TRP21       0.0001
     43  CE3      -11.3480    4.7280   -2.9100 C.ar   21  TRP21       0.0012
     44  CD2      -11.1270    3.5500   -2.1550 C.ar   21  TRP21       0.0152
     45  C        -10.3230    2.8760   -5.7330 C.2    21  TRP21       0.3845
     46  O        -11.0800    1.9620   -6.0950 O.co2  21  TRP21      -0.2437
     47  OXT      -10.4270    4.0430   -6.2080 O.co2  21  TRP21      -0.2437
@<TRIPOS>BOND
     1    47    45   ar
     2    46    45   ar
     3    28    27    1
     4    45    34    1
     5    30    29    1
     6    34    33    1
     7    34    35    1
     8    27    29    1
     9    27    26    1
    10    32    31    2
    11    33    31   am
    12    31    26    1
    13    35    36    1
    14    26    25    1
    15    43    42   ar
    16    43    44   ar
    17    36    44   ar
    18    36    37   ar
    19    42    41   ar
    20    25    23   am
    21    44    39   ar
    22    24    23    2
    23     6     4    1
    24    37    38   ar
    25    23    18    1
    26     8     7    2
    27     1     2    1
    28    41    40   ar
    29    39    38   ar
    30    39    40   ar
    31     2     7    1
    32     2     3    1
    33    20    19    1
    34     7     9   am
    35     4     3    1
    36     4     5    1
    37    19    18    1
    38    19    21    1
    39    18    17    1
    40    17    15   am
    41     9    10    1
    42    15    10    1
    43    15    16    2
    44    10    11    1
    45    21    22    1
    46    13    12   ar
    47    11    12    1
    48    12    14   ar
