@<TRIPOS>MOLECULE
6918493
 49 51 0 0 0
SMALL
GASTEIGER

@<TRIPOS>ATOM
      1 O          -9.0859    1.5407   -1.3050 O.3     1  LIG11      -0.3632
      2 O          -7.8866    5.1027   -0.8339 O.3     1  LIG11      -0.4495
      3 O          -8.8062    4.3131    1.5932 O.co2   1  LIG11      -0.5459
      4 O          -7.7732    2.2978    1.3769 O.co2   1  LIG11      -0.5459
      5 N          -5.8256    5.0373    0.3047 N.ar    1  LIG11      -0.2002
      6 N          -6.3764    6.7801   -1.2158 N.ar    1  LIG11      -0.2002
      7 C          -9.0060    2.9875   -1.4982 C.3     1  LIG11       0.1609
      8 C          -7.9433    3.6715   -0.5700 C.3     1  LIG11       0.1791
      9 C         -10.4269    3.5393   -1.1763 C.ar    1  LIG11      -0.0075
     10 C          -8.7229    3.1258   -3.0370 C.ar    1  LIG11      -0.0075
     11 C         -10.9329    4.6963   -1.8008 C.ar    1  LIG11      -0.0554
     12 C          -7.6124    3.7993   -3.5715 C.ar    1  LIG11      -0.0554
     13 C         -11.2357    2.9168   -0.2071 C.ar    1  LIG11      -0.0554
     14 C          -9.6053    2.5094   -3.9541 C.ar    1  LIG11      -0.0554
     15 C          -8.2160    3.4056    0.9364 C.2     1  LIG11       0.0856
     16 C          -7.8776    0.8072   -1.4403 C.3     1  LIG11       0.0382
     17 C         -12.2076    5.1831   -1.4986 C.ar    1  LIG11      -0.0614
     18 C          -7.4059    3.8776   -4.9531 C.ar    1  LIG11      -0.0614
     19 C         -12.5030    3.4133    0.1076 C.ar    1  LIG11      -0.0614
     20 C          -9.3968    2.5826   -5.3331 C.ar    1  LIG11      -0.0614
     21 C         -12.9934    4.5412   -0.5452 C.ar    1  LIG11      -0.0617
     22 C          -8.2971    3.2710   -5.8334 C.ar    1  LIG11      -0.0617
     23 C          -6.6701    5.6663   -0.5229 C.ar    1  LIG11       0.3191
     24 C          -4.6286    5.6032    0.5151 C.ar    1  LIG11       0.0453
     25 C          -5.1556    7.3086   -1.0119 C.ar    1  LIG11       0.0453
     26 C          -4.2387    6.7546   -0.1377 C.ar    1  LIG11      -0.0193
     27 C          -3.7176    4.9220    1.4884 C.3     1  LIG11      -0.0221
     28 C          -4.8043    8.5364   -1.7944 C.3     1  LIG11      -0.0221
     29 H          -6.9654    3.2325   -0.8090 H       1  LIG11       0.0834
     30 H         -10.3243    5.2381   -2.5216 H       1  LIG11       0.0621
     31 H          -6.8797    4.2790   -2.9311 H       1  LIG11       0.0621
     32 H         -10.8540    2.0576    0.3441 H       1  LIG11       0.0621
     33 H         -10.4672    1.9604   -3.5756 H       1  LIG11       0.0621
     34 H          -8.1067   -0.2474   -1.2672 H       1  LIG11       0.0524
     35 H          -7.4673    0.8902   -2.4517 H       1  LIG11       0.0524
     36 H          -7.1189    1.1000   -0.7134 H       1  LIG11       0.0524
     37 H         -12.5723    6.0778   -1.9934 H       1  LIG11       0.0618
     38 H          -6.5428    4.4163   -5.3342 H       1  LIG11       0.0618
     39 H         -13.0863    2.9315    0.8860 H       1  LIG11       0.0618
     40 H         -10.0958    2.0996   -6.0094 H       1  LIG11       0.0618
     41 H         -13.9710    4.9348   -0.2882 H       1  LIG11       0.0618
     42 H          -8.1315    3.3329   -6.9041 H       1  LIG11       0.0618
     43 H          -3.2648    7.1951    0.0237 H       1  LIG11       0.0653
     44 H          -4.1958    4.0341    1.9154 H       1  LIG11       0.0293
     45 H          -2.7973    4.6051    0.9880 H       1  LIG11       0.0293
     46 H          -3.4663    5.5997    2.3100 H       1  LIG11       0.0293
     47 H          -5.6283    8.8282   -2.4536 H       1  LIG11       0.0293
     48 H          -4.5946    9.3707   -1.1183 H       1  LIG11       0.0293
     49 H          -3.9242    8.3470   -2.4171 H       1  LIG11       0.0293
@<TRIPOS>BOND
     1     1     7    1
     2     1    16    1
     3     2     8    1
     4     2    23    1
     5     3    15   ar
     6     4    15   ar
     7     5    23   ar
     8     5    24   ar
     9     6    23   ar
    10     6    25   ar
    11     7     8    1
    12     7     9    1
    13     7    10    1
    14     8    15    1
    15     9    11   ar
    16     9    13   ar
    17    10    12   ar
    18    10    14   ar
    19    11    17   ar
    20    12    18   ar
    21    13    19   ar
    22    14    20   ar
    23    17    21   ar
    24    18    22   ar
    25    19    21   ar
    26    20    22   ar
    27    24    26   ar
    28    24    27    1
    29    25    26   ar
    30    25    28    1
    31     8    29    1
    32    11    30    1
    33    12    31    1
    34    13    32    1
    35    14    33    1
    36    16    34    1
    37    16    35    1
    38    16    36    1
    39    17    37    1
    40    18    38    1
    41    19    39    1
    42    20    40    1
    43    21    41    1
    44    22    42    1
    45    26    43    1
    46    27    44    1
    47    27    45    1
    48    27    46    1
    49    28    47    1
    50    28    48    1
    51    28    49    1
@<TRIPOS>MOLECULE
../1EDN/3STEPMIN_17-21.pdb
 47 48 0 0 0
SMALL
GASTEIGER

@<TRIPOS>ATOM
      1  N         -5.4290    0.8830   -1.1740 N.3    17  LEU17      -0.1231
      2  CA        -6.8230    0.6710   -0.7980 C.3    17  LEU17       0.1693
      3  CB        -6.9230   -0.4370    0.2770 C.3    17  LEU17       0.0284
      4  CG        -6.4950   -1.8450   -0.1910 C.3    17  LEU17       0.0019
      5  CD1       -6.5150   -2.8060    0.9980 C.3    17  LEU17       0.0001
      6  CD2       -7.4310   -2.4140   -1.2600 C.3    17  LEU17       0.0001
      7  C         -7.3990    2.0370   -0.3760 C.2    17  LEU17       0.2592
      8  O         -7.4670    2.9330   -1.2040 O.2    17  LEU17      -0.2718
      9  N         -7.7380    2.2560    0.8970 N.am   18  ASP18      -0.1960
     10  CA        -8.5130    3.4280    1.3730 C.3    18  ASP18       0.1840
     11  CB        -9.0510    3.1310    2.7840 C.3    18  ASP18       0.1450
     12  CG       -10.5470    3.4340    2.8500 C.2    18  ASP18       0.3671
     13  OD1      -11.3300    2.4930    2.5610 O.co2  18  ASP18      -0.2456
     14  OD2      -10.9050    4.5930    3.1470 O.co2  18  ASP18      -0.2456
     15  C         -7.8270    4.8120    1.2910 C.2    18  ASP18       0.2622
     16  O         -8.3890    5.8210    1.7350 O.2    18  ASP18      -0.2715
     17  N         -6.6250    4.8510    0.7010 N.am   19  ILE19      -0.1963
     18  CA        -5.9180    6.0210    0.1680 C.3    19  ILE19       0.1727
     19  CB        -4.3960    5.7260    0.0740 C.3    19  ILE19       0.0290
     20  CG2       -3.6150    6.9530   -0.4300 C.3    19  ILE19       0.0023
     21  CG1       -3.7730    5.2100    1.3920 C.3    19  ILE19       0.0022
     22  CD1       -3.8620    6.1700    2.5820 C.3    19  ILE19       0.0001
     23  C         -6.4970    6.4050   -1.2110 C.2    19  ILE19       0.2616
     24  O         -7.0070    7.5130   -1.3720 O.2    19  ILE19      -0.2715
     25  N         -6.3950    5.4980   -2.1940 N.am   20  ILE20      -0.1963
     26  CA        -6.9990    5.5490   -3.5400 C.3    20  ILE20       0.1727
     27  CB        -6.0900    6.2460   -4.5940 C.3    20  ILE20       0.0290
     28  CG2       -6.7980    6.2490   -5.9680 C.3    20  ILE20       0.0023
     29  CG1       -5.7140    7.6970   -4.2070 C.3    20  ILE20       0.0022
     30  CD1       -4.7810    8.4150   -5.1910 C.3    20  ILE20       0.0001
     31  C         -7.3180    4.1070   -3.9880 C.2    20  ILE20       0.2617
     32  O         -6.4020    3.3070   -4.2100 O.2    20  ILE20      -0.2715
     33  N         -8.6100    3.8210   -4.1620 N.am   21  TRP21      -0.1938
     34  CA        -9.2240    2.5950   -4.7020 C.3    21  TRP21       0.2021
     35  CB        -9.7020    1.6830   -3.5450 C.3    21  TRP21       0.0612
     36  CG       -10.4970    2.2370   -2.3850 C.ar   21  TRP21       0.0007
     37  CD1      -10.6860    1.5470   -1.2340 C.ar   21  TRP21       0.0946
     38  NE1      -11.3350    2.3340   -0.3040 N.ar   21  TRP21      -0.2442
     39  CE2      -11.5720    3.5950   -0.7990 C.ar   21  TRP21       0.0810
     40  CZ2      -12.0950    4.7480   -0.2000 C.ar   21  TRP21       0.0191
     41  CH2      -12.2340    5.9130   -0.9670 C.ar   21  TRP21       0.0015
     42  CZ3      -11.8800    5.8920   -2.3260 C.ar   21  TRP21       0.0001
     43  CE3      -11.3480    4.7280   -2.9100 C.ar   21  TRP21       0.0012
     44  CD2      -11.1270    3.5500   -2.1550 C.ar   21  TRP21       0.0152
     45  C        -10.3230    2.8760   -5.7330 C.2    21  TRP21       0.3845
     46  O        -11.0800    1.9620   -6.0950 O.co2  21  TRP21      -0.2437
     47  OXT      -10.4270    4.0430   -6.2080 O.co2  21  TRP21      -0.2437
@<TRIPOS>BOND
     1    47    45   ar
     2    46    45   ar
     3    28    27    1
     4    45    34    1
     5    30    29    1
     6    34    33    1
     7    34    35    1
     8    27    29    1
     9    27    26    1
    10    32    31    2
    11    33    31   am
    12    31    26    1
    13    35    36    1
    14    26    25    1
    15    43    42   ar
    16    43    44   ar
    17    36    44   ar
    18    36    37   ar
    19    42    41   ar
    20    25    23   am
    21    44    39   ar
    22    24    23    2
    23     6     4    1
    24    37    38   ar
    25    23    18    1
    26     8     7    2
    27     1     2    1
    28    41    40   ar
    29    39    38   ar
    30    39    40   ar
    31     2     7    1
    32     2     3    1
    33    20    19    1
    34     7     9   am
    35     4     3    1
    36     4     5    1
    37    19    18    1
    38    19    21    1
    39    18    17    1
    40    17    15   am
    41     9    10    1
    42    15    10    1
    43    15    16    2
    44    10    11    1
    45    21    22    1
    46    13    12   ar
    47    11    12    1
    48    12    14   ar
