@<TRIPOS>MOLECULE
156690
 70 73 0 0 0
SMALL
GASTEIGER

@<TRIPOS>ATOM
      1 S          -8.1187    3.7277    0.9492 S.O2    1  LIG11       0.0741
      2 O         -10.8482    3.1943   -5.7814 O.2     1  LIG11      -0.2756
      3 O          -9.3120    4.1002    0.2297 O.2     1  LIG11      -0.1499
      4 O          -6.9888    4.6275    1.0894 O.2     1  LIG11      -0.1499
      5 O          -6.7304    6.9219   -5.4057 O.2     1  LIG11      -0.4436
      6 O         -11.8240    3.5635    3.5490 O.2     1  LIG11      -0.3578
      7 N          -8.8716    2.5554   -4.8288 N.am    1  LIG11      -0.3002
      8 N          -8.4644    3.3652    2.5704 N.pl3   1  LIG11      -0.1965
      9 N          -5.2746    7.8901   -3.9776 N.ar    1  LIG11      -0.2175
     10 N         -10.7957    2.9537    2.8555 N.ar    1  LIG11      -0.0614
     11 C         -12.0799    4.0746   -3.2762 C.3     1  LIG11      -0.0295
     12 C         -10.5819    3.7147   -3.4333 C.3     1  LIG11       0.0290
     13 C         -12.2825    4.5862   -1.8329 C.3     1  LIG11      -0.0596
     14 C         -12.9644    2.8317   -3.4726 C.3     1  LIG11      -0.0596
     15 C         -12.5150    5.1920   -4.2381 C.3     1  LIG11      -0.0596
     16 C         -10.1423    3.1234   -4.7761 C.2     1  LIG11       0.2161
     17 C          -8.0544    2.2461   -3.6544 C.3     1  LIG11       0.0400
     18 C          -7.2126    3.3918   -3.1112 C.ar    1  LIG11      -0.0216
     19 C          -6.5771    3.2883   -1.8425 C.ar    1  LIG11      -0.0113
     20 C          -6.7988    2.1348   -0.9383 C.ar    1  LIG11       0.0090
     21 C          -8.3891    2.0469   -6.1060 C.3     1  LIG11       0.0035
     22 C          -6.9944    4.5476   -3.8965 C.ar    1  LIG11      -0.0442
     23 C          -7.5336    2.1849    0.2705 C.ar    1  LIG11       0.1162
     24 C          -5.6901    4.3091   -1.4641 C.ar    1  LIG11      -0.0529
     25 C          -6.1767    5.5994   -3.4627 C.ar    1  LIG11       0.0372
     26 C          -5.5107    5.4542   -2.2452 C.ar    1  LIG11      -0.0489
     27 C          -6.3022    0.8746   -1.3396 C.ar    1  LIG11      -0.0521
     28 C          -7.8261    1.0032    0.9804 C.ar    1  LIG11      -0.0345
     29 C          -6.5860   -0.2904   -0.6244 C.ar    1  LIG11      -0.0611
     30 C          -6.0112    6.8248   -4.2406 C.ar    1  LIG11       0.2271
     31 C          -7.3616   -0.2280    0.5258 C.ar    1  LIG11      -0.0599
     32 C          -9.7217    3.7190    3.0570 C.ar    1  LIG11       0.1837
     33 C         -10.0076    4.8207    3.9052 C.ar    1  LIG11       0.0342
     34 C         -11.3518    4.6719    4.1771 C.ar    1  LIG11       0.1390
     35 C          -9.1133    5.8988    4.3832 C.3     1  LIG11      -0.0330
     36 C          -6.4166    8.1536   -5.8927 C.ar    1  LIG11       0.1125
     37 C          -5.5334    8.7394   -5.0234 C.ar    1  LIG11       0.0663
     38 C         -12.3239    5.4428    4.9758 C.3     1  LIG11      -0.0034
     39 H          -7.7017    3.7884    3.0965 H       1  LIG11       0.1753
     40 H          -9.9767    4.6156   -3.2716 H       1  LIG11       0.0364
     41 H         -10.3384    3.0061   -2.6379 H       1  LIG11       0.0364
     42 H         -12.0007    3.8228   -1.0987 H       1  LIG11       0.0235
     43 H         -11.6715    5.4756   -1.6407 H       1  LIG11       0.0235
     44 H         -13.3281    4.8529   -1.6483 H       1  LIG11       0.0235
     45 H         -12.6485    2.0162   -2.8109 H       1  LIG11       0.0235
     46 H         -14.0126    3.0541   -3.2488 H       1  LIG11       0.0235
     47 H         -12.9248    2.4581   -4.5007 H       1  LIG11       0.0235
     48 H         -11.8538    6.0618   -4.1579 H       1  LIG11       0.0235
     49 H         -12.5166    4.8671   -5.2822 H       1  LIG11       0.0235
     50 H         -13.5336    5.5273   -4.0113 H       1  LIG11       0.0235
     51 H          -8.7118    1.8485   -2.8775 H       1  LIG11       0.0514
     52 H          -7.3738    1.4338   -3.9386 H       1  LIG11       0.0514
     53 H          -8.9531    2.4519   -6.9507 H       1  LIG11       0.0429
     54 H          -7.3367    2.3198   -6.2295 H       1  LIG11       0.0429
     55 H          -8.4864    0.9569   -6.1063 H       1  LIG11       0.0429
     56 H          -7.4845    4.6378   -4.8651 H       1  LIG11       0.0628
     57 H          -5.1420    4.2407   -0.5249 H       1  LIG11       0.0624
     58 H          -4.8543    6.2447   -1.8842 H       1  LIG11       0.0625
     59 H          -5.7052    0.7913   -2.2465 H       1  LIG11       0.0624
     60 H          -8.4376    1.0201    1.8799 H       1  LIG11       0.0637
     61 H          -6.2142   -1.2497   -0.9779 H       1  LIG11       0.0618
     62 H          -7.6037   -1.1360    1.0731 H       1  LIG11       0.0618
     63 H          -8.1057    5.8113    3.9675 H       1  LIG11       0.0280
     64 H          -9.5079    6.8785    4.0912 H       1  LIG11       0.0280
     65 H          -9.0321    5.8736    5.4744 H       1  LIG11       0.0280
     66 H          -6.8893    8.4423   -6.8195 H       1  LIG11       0.1046
     67 H          -5.0764    9.7163   -5.0908 H       1  LIG11       0.0862
     68 H         -13.2839    4.9230    5.0498 H       1  LIG11       0.0309
     69 H         -11.9461    5.5999    5.9912 H       1  LIG11       0.0309
     70 H         -12.4997    6.4219    4.5201 H       1  LIG11       0.0309
@<TRIPOS>BOND
     1     1     3    2
     2     1     4    2
     3     1     8    1
     4     1    23    1
     5     2    16    2
     6     5    30   ar
     7     5    36   ar
     8     6    10   ar
     9     6    34   ar
    10     7    16   am
    11     7    17    1
    12     7    21    1
    13     8    32    1
    14     9    30   ar
    15     9    37   ar
    16    10    32   ar
    17    11    12    1
    18    11    13    1
    19    11    14    1
    20    11    15    1
    21    12    16    1
    22    17    18    1
    23    18    19   ar
    24    18    22   ar
    25    19    20    1
    26    19    24   ar
    27    20    23   ar
    28    20    27   ar
    29    22    25   ar
    30    23    28   ar
    31    24    26   ar
    32    25    26   ar
    33    25    30    1
    34    27    29   ar
    35    28    31   ar
    36    29    31   ar
    37    32    33   ar
    38    33    34   ar
    39    33    35    1
    40    34    38    1
    41    36    37   ar
    42     8    39    1
    43    12    40    1
    44    12    41    1
    45    13    42    1
    46    13    43    1
    47    13    44    1
    48    14    45    1
    49    14    46    1
    50    14    47    1
    51    15    48    1
    52    15    49    1
    53    15    50    1
    54    17    51    1
    55    17    52    1
    56    21    53    1
    57    21    54    1
    58    21    55    1
    59    22    56    1
    60    24    57    1
    61    26    58    1
    62    27    59    1
    63    28    60    1
    64    29    61    1
    65    31    62    1
    66    35    63    1
    67    35    64    1
    68    35    65    1
    69    36    66    1
    70    37    67    1
    71    38    68    1
    72    38    69    1
    73    38    70    1
@<TRIPOS>MOLECULE
../1EDN/3STEPMIN_17-21.pdb
 47 48 0 0 0
SMALL
GASTEIGER

@<TRIPOS>ATOM
      1  N         -5.4290    0.8830   -1.1740 N.3    17  LEU17      -0.1231
      2  CA        -6.8230    0.6710   -0.7980 C.3    17  LEU17       0.1693
      3  CB        -6.9230   -0.4370    0.2770 C.3    17  LEU17       0.0284
      4  CG        -6.4950   -1.8450   -0.1910 C.3    17  LEU17       0.0019
      5  CD1       -6.5150   -2.8060    0.9980 C.3    17  LEU17       0.0001
      6  CD2       -7.4310   -2.4140   -1.2600 C.3    17  LEU17       0.0001
      7  C         -7.3990    2.0370   -0.3760 C.2    17  LEU17       0.2592
      8  O         -7.4670    2.9330   -1.2040 O.2    17  LEU17      -0.2718
      9  N         -7.7380    2.2560    0.8970 N.am   18  ASP18      -0.1960
     10  CA        -8.5130    3.4280    1.3730 C.3    18  ASP18       0.1840
     11  CB        -9.0510    3.1310    2.7840 C.3    18  ASP18       0.1450
     12  CG       -10.5470    3.4340    2.8500 C.2    18  ASP18       0.3671
     13  OD1      -11.3300    2.4930    2.5610 O.co2  18  ASP18      -0.2456
     14  OD2      -10.9050    4.5930    3.1470 O.co2  18  ASP18      -0.2456
     15  C         -7.8270    4.8120    1.2910 C.2    18  ASP18       0.2622
     16  O         -8.3890    5.8210    1.7350 O.2    18  ASP18      -0.2715
     17  N         -6.6250    4.8510    0.7010 N.am   19  ILE19      -0.1963
     18  CA        -5.9180    6.0210    0.1680 C.3    19  ILE19       0.1727
     19  CB        -4.3960    5.7260    0.0740 C.3    19  ILE19       0.0290
     20  CG2       -3.6150    6.9530   -0.4300 C.3    19  ILE19       0.0023
     21  CG1       -3.7730    5.2100    1.3920 C.3    19  ILE19       0.0022
     22  CD1       -3.8620    6.1700    2.5820 C.3    19  ILE19       0.0001
     23  C         -6.4970    6.4050   -1.2110 C.2    19  ILE19       0.2616
     24  O         -7.0070    7.5130   -1.3720 O.2    19  ILE19      -0.2715
     25  N         -6.3950    5.4980   -2.1940 N.am   20  ILE20      -0.1963
     26  CA        -6.9990    5.5490   -3.5400 C.3    20  ILE20       0.1727
     27  CB        -6.0900    6.2460   -4.5940 C.3    20  ILE20       0.0290
     28  CG2       -6.7980    6.2490   -5.9680 C.3    20  ILE20       0.0023
     29  CG1       -5.7140    7.6970   -4.2070 C.3    20  ILE20       0.0022
     30  CD1       -4.7810    8.4150   -5.1910 C.3    20  ILE20       0.0001
     31  C         -7.3180    4.1070   -3.9880 C.2    20  ILE20       0.2617
     32  O         -6.4020    3.3070   -4.2100 O.2    20  ILE20      -0.2715
     33  N         -8.6100    3.8210   -4.1620 N.am   21  TRP21      -0.1938
     34  CA        -9.2240    2.5950   -4.7020 C.3    21  TRP21       0.2021
     35  CB        -9.7020    1.6830   -3.5450 C.3    21  TRP21       0.0612
     36  CG       -10.4970    2.2370   -2.3850 C.ar   21  TRP21       0.0007
     37  CD1      -10.6860    1.5470   -1.2340 C.ar   21  TRP21       0.0946
     38  NE1      -11.3350    2.3340   -0.3040 N.ar   21  TRP21      -0.2442
     39  CE2      -11.5720    3.5950   -0.7990 C.ar   21  TRP21       0.0810
     40  CZ2      -12.0950    4.7480   -0.2000 C.ar   21  TRP21       0.0191
     41  CH2      -12.2340    5.9130   -0.9670 C.ar   21  TRP21       0.0015
     42  CZ3      -11.8800    5.8920   -2.3260 C.ar   21  TRP21       0.0001
     43  CE3      -11.3480    4.7280   -2.9100 C.ar   21  TRP21       0.0012
     44  CD2      -11.1270    3.5500   -2.1550 C.ar   21  TRP21       0.0152
     45  C        -10.3230    2.8760   -5.7330 C.2    21  TRP21       0.3845
     46  O        -11.0800    1.9620   -6.0950 O.co2  21  TRP21      -0.2437
     47  OXT      -10.4270    4.0430   -6.2080 O.co2  21  TRP21      -0.2437
@<TRIPOS>BOND
     1    47    45   ar
     2    46    45   ar
     3    28    27    1
     4    45    34    1
     5    30    29    1
     6    34    33    1
     7    34    35    1
     8    27    29    1
     9    27    26    1
    10    32    31    2
    11    33    31   am
    12    31    26    1
    13    35    36    1
    14    26    25    1
    15    43    42   ar
    16    43    44   ar
    17    36    44   ar
    18    36    37   ar
    19    42    41   ar
    20    25    23   am
    21    44    39   ar
    22    24    23    2
    23     6     4    1
    24    37    38   ar
    25    23    18    1
    26     8     7    2
    27     1     2    1
    28    41    40   ar
    29    39    38   ar
    30    39    40   ar
    31     2     7    1
    32     2     3    1
    33    20    19    1
    34     7     9   am
    35     4     3    1
    36     4     5    1
    37    19    18    1
    38    19    21    1
    39    18    17    1
    40    17    15   am
    41     9    10    1
    42    15    10    1
    43    15    16    2
    44    10    11    1
    45    21    22    1
    46    13    12   ar
    47    11    12    1
    48    12    14   ar
