@<TRIPOS>MOLECULE
3047752
 70 74 0 0 0
SMALL
GASTEIGER

@<TRIPOS>ATOM
      1 O         -10.0252    5.0973   -3.2565 O.co2   1  LIG11      -0.5495
      2 O          -9.2746    3.5600   -4.7576 O.co2   1  LIG11      -0.5495
      3 O          -3.0375    5.3483   -5.9864 O.3     1  LIG11      -0.4526
      4 O          -4.1238    6.0325   -8.0311 O.3     1  LIG11      -0.4526
      5 O          -6.2268   -1.2082    0.1157 O.3     1  LIG11      -0.4951
      6 O         -10.4816    3.7279    3.1704 O.co2   1  LIG11      -0.5495
      7 O         -11.8282    1.9017    2.9949 O.co2   1  LIG11      -0.5495
      8 N          -6.2125    5.0974    0.1326 N.ar    1  LIG11      -0.2556
      9 C          -7.7798    4.3334   -3.1136 C.3     1  LIG11       0.0217
     10 C          -7.7947    4.0596   -1.5824 C.3     1  LIG11       0.0357
     11 C          -7.2637    5.7777   -3.3341 C.3     1  LIG11       0.0199
     12 C          -6.5331    6.0606   -2.0517 C.ar    1  LIG11      -0.0174
     13 C          -6.7754    5.0877   -1.0949 C.ar    1  LIG11       0.0534
     14 C          -7.4608    2.6396   -1.1028 C.ar    1  LIG11      -0.0344
     15 C          -6.4079    5.8762   -4.5972 C.ar    1  LIG11      -0.0356
     16 C          -9.1690    4.3109   -3.7429 C.2     1  LIG11       0.0466
     17 C          -5.7295    7.1441   -1.7344 C.ar    1  LIG11      -0.0546
     18 C          -7.9359    2.1271    0.1329 C.ar    1  LIG11      -0.0395
     19 C          -6.5830    1.8232   -1.8464 C.ar    1  LIG11      -0.0542
     20 C          -5.3990    6.1389    0.4255 C.ar    1  LIG11       0.0416
     21 C          -5.0422    5.5364   -4.6116 C.ar    1  LIG11      -0.0124
     22 C          -5.1479    7.1814   -0.4717 C.ar    1  LIG11      -0.0401
     23 C          -7.0340    6.2564   -5.8090 C.ar    1  LIG11      -0.0543
     24 C          -8.8315    2.8947    1.1062 C.3     1  LIG11      -0.0196
     25 C          -7.5300    0.8355    0.5552 C.ar    1  LIG11      -0.0165
     26 C          -4.7346    6.1149    1.7770 C.3     1  LIG11      -0.0104
     27 C         -10.2213    2.2612    1.2916 C.3     1  LIG11      -0.0003
     28 C          -4.3572    5.6273   -5.8049 C.ar    1  LIG11       0.1665
     29 C          -6.2110    0.5455   -1.4153 C.ar    1  LIG11      -0.0197
     30 C          -6.3152    6.3335   -7.0065 C.ar    1  LIG11      -0.0159
     31 C          -6.6784    0.0431   -0.2097 C.ar    1  LIG11       0.1204
     32 C          -4.9759    6.0178   -6.9697 C.ar    1  LIG11       0.1662
     33 C          -3.4844    5.2284    1.8167 C.3     1  LIG11      -0.0479
     34 C         -11.1573    2.6026    0.1364 C.3     1  LIG11      -0.0570
     35 C          -2.3225    5.7822    0.9853 C.3     1  LIG11      -0.0556
     36 C         -10.9125    2.6867    2.6003 C.2     1  LIG11       0.0449
     37 C          -2.9117    5.5701   -7.4034 C.3     1  LIG11       0.2332
     38 C          -1.0656    4.9429    1.1526 C.3     1  LIG11      -0.0653
     39 C          -6.6541   -1.7186    1.3719 C.3     1  LIG11       0.0788
     40 H          -7.1479    3.6300   -3.6620 H       1  LIG11       0.0379
     41 H          -8.7774    4.3429   -1.1916 H       1  LIG11       0.0419
     42 H          -8.0661    6.5245   -3.4001 H       1  LIG11       0.0404
     43 H          -5.5536    7.9346   -2.4554 H       1  LIG11       0.0622
     44 H          -6.1485    2.1704   -2.7778 H       1  LIG11       0.0622
     45 H          -4.5331    5.1961   -3.7158 H       1  LIG11       0.0658
     46 H          -4.4999    8.0050   -0.1955 H       1  LIG11       0.0636
     47 H          -8.1059    6.4588   -5.8150 H       1  LIG11       0.0622
     48 H          -8.2974    2.9108    2.0672 H       1  LIG11       0.0319
     49 H          -8.9287    3.9485    0.8311 H       1  LIG11       0.0319
     50 H          -7.9040    0.4870    1.5136 H       1  LIG11       0.0657
     51 H          -4.4898    7.1346    2.0993 H       1  LIG11       0.0328
     52 H          -5.4605    5.7323    2.5063 H       1  LIG11       0.0328
     53 H         -10.1310    1.1687    1.3426 H       1  LIG11       0.0361
     54 H          -5.5400   -0.0487   -2.0272 H       1  LIG11       0.0654
     55 H          -6.8069    6.6094   -7.9312 H       1  LIG11       0.0655
     56 H          -3.1619    5.1410    2.8616 H       1  LIG11       0.0269
     57 H          -3.7298    4.2151    1.4745 H       1  LIG11       0.0269
     58 H         -11.2867    3.6857    0.0333 H       1  LIG11       0.0236
     59 H         -10.7666    2.2158   -0.8105 H       1  LIG11       0.0236
     60 H         -12.1507    2.1645    0.2851 H       1  LIG11       0.0236
     61 H          -2.5897    5.7998   -0.0763 H       1  LIG11       0.0263
     62 H          -2.1073    6.8141    1.2864 H       1  LIG11       0.0263
     63 H          -2.1270    6.3168   -7.5709 H       1  LIG11       0.1166
     64 H          -2.6058    4.6312   -7.8799 H       1  LIG11       0.1166
     65 H          -1.2392    3.9087    0.8385 H       1  LIG11       0.0230
     66 H          -0.2546    5.3515    0.5423 H       1  LIG11       0.0230
     67 H          -0.7337    4.9353    2.1960 H       1  LIG11       0.0230
     68 H          -6.2064   -2.7094    1.4977 H       1  LIG11       0.0660
     69 H          -6.2996   -1.0902    2.1957 H       1  LIG11       0.0660
     70 H          -7.7421   -1.8409    1.4028 H       1  LIG11       0.0660
@<TRIPOS>BOND
     1     1    16   ar
     2     2    16   ar
     3     3    28    1
     4     3    37    1
     5     4    32    1
     6     4    37    1
     7     5    31    1
     8     5    39    1
     9     6    36   ar
    10     7    36   ar
    11     8    13   ar
    12     8    20   ar
    13     9    10    1
    14     9    11    1
    15     9    16    1
    16    10    13    1
    17    10    14    1
    18    11    12    1
    19    11    15    1
    20    12    13   ar
    21    12    17   ar
    22    14    18   ar
    23    14    19   ar
    24    15    21   ar
    25    15    23   ar
    26    17    22   ar
    27    18    24    1
    28    18    25   ar
    29    19    29   ar
    30    20    22   ar
    31    20    26    1
    32    21    28   ar
    33    23    30   ar
    34    24    27    1
    35    25    31   ar
    36    26    33    1
    37    27    34    1
    38    27    36    1
    39    28    32   ar
    40    29    31   ar
    41    30    32   ar
    42    33    35    1
    43    35    38    1
    44     9    40    1
    45    10    41    1
    46    11    42    1
    47    17    43    1
    48    19    44    1
    49    21    45    1
    50    22    46    1
    51    23    47    1
    52    24    48    1
    53    24    49    1
    54    25    50    1
    55    26    51    1
    56    26    52    1
    57    27    53    1
    58    29    54    1
    59    30    55    1
    60    33    56    1
    61    33    57    1
    62    34    58    1
    63    34    59    1
    64    34    60    1
    65    35    61    1
    66    35    62    1
    67    37    63    1
    68    37    64    1
    69    38    65    1
    70    38    66    1
    71    38    67    1
    72    39    68    1
    73    39    69    1
    74    39    70    1
@<TRIPOS>MOLECULE
../1EDN/3STEPMIN_17-21.pdb
 47 48 0 0 0
SMALL
GASTEIGER

@<TRIPOS>ATOM
      1  N         -5.4290    0.8830   -1.1740 N.3    17  LEU17      -0.1231
      2  CA        -6.8230    0.6710   -0.7980 C.3    17  LEU17       0.1693
      3  CB        -6.9230   -0.4370    0.2770 C.3    17  LEU17       0.0284
      4  CG        -6.4950   -1.8450   -0.1910 C.3    17  LEU17       0.0019
      5  CD1       -6.5150   -2.8060    0.9980 C.3    17  LEU17       0.0001
      6  CD2       -7.4310   -2.4140   -1.2600 C.3    17  LEU17       0.0001
      7  C         -7.3990    2.0370   -0.3760 C.2    17  LEU17       0.2592
      8  O         -7.4670    2.9330   -1.2040 O.2    17  LEU17      -0.2718
      9  N         -7.7380    2.2560    0.8970 N.am   18  ASP18      -0.1960
     10  CA        -8.5130    3.4280    1.3730 C.3    18  ASP18       0.1840
     11  CB        -9.0510    3.1310    2.7840 C.3    18  ASP18       0.1450
     12  CG       -10.5470    3.4340    2.8500 C.2    18  ASP18       0.3671
     13  OD1      -11.3300    2.4930    2.5610 O.co2  18  ASP18      -0.2456
     14  OD2      -10.9050    4.5930    3.1470 O.co2  18  ASP18      -0.2456
     15  C         -7.8270    4.8120    1.2910 C.2    18  ASP18       0.2622
     16  O         -8.3890    5.8210    1.7350 O.2    18  ASP18      -0.2715
     17  N         -6.6250    4.8510    0.7010 N.am   19  ILE19      -0.1963
     18  CA        -5.9180    6.0210    0.1680 C.3    19  ILE19       0.1727
     19  CB        -4.3960    5.7260    0.0740 C.3    19  ILE19       0.0290
     20  CG2       -3.6150    6.9530   -0.4300 C.3    19  ILE19       0.0023
     21  CG1       -3.7730    5.2100    1.3920 C.3    19  ILE19       0.0022
     22  CD1       -3.8620    6.1700    2.5820 C.3    19  ILE19       0.0001
     23  C         -6.4970    6.4050   -1.2110 C.2    19  ILE19       0.2616
     24  O         -7.0070    7.5130   -1.3720 O.2    19  ILE19      -0.2715
     25  N         -6.3950    5.4980   -2.1940 N.am   20  ILE20      -0.1963
     26  CA        -6.9990    5.5490   -3.5400 C.3    20  ILE20       0.1727
     27  CB        -6.0900    6.2460   -4.5940 C.3    20  ILE20       0.0290
     28  CG2       -6.7980    6.2490   -5.9680 C.3    20  ILE20       0.0023
     29  CG1       -5.7140    7.6970   -4.2070 C.3    20  ILE20       0.0022
     30  CD1       -4.7810    8.4150   -5.1910 C.3    20  ILE20       0.0001
     31  C         -7.3180    4.1070   -3.9880 C.2    20  ILE20       0.2617
     32  O         -6.4020    3.3070   -4.2100 O.2    20  ILE20      -0.2715
     33  N         -8.6100    3.8210   -4.1620 N.am   21  TRP21      -0.1938
     34  CA        -9.2240    2.5950   -4.7020 C.3    21  TRP21       0.2021
     35  CB        -9.7020    1.6830   -3.5450 C.3    21  TRP21       0.0612
     36  CG       -10.4970    2.2370   -2.3850 C.ar   21  TRP21       0.0007
     37  CD1      -10.6860    1.5470   -1.2340 C.ar   21  TRP21       0.0946
     38  NE1      -11.3350    2.3340   -0.3040 N.ar   21  TRP21      -0.2442
     39  CE2      -11.5720    3.5950   -0.7990 C.ar   21  TRP21       0.0810
     40  CZ2      -12.0950    4.7480   -0.2000 C.ar   21  TRP21       0.0191
     41  CH2      -12.2340    5.9130   -0.9670 C.ar   21  TRP21       0.0015
     42  CZ3      -11.8800    5.8920   -2.3260 C.ar   21  TRP21       0.0001
     43  CE3      -11.3480    4.7280   -2.9100 C.ar   21  TRP21       0.0012
     44  CD2      -11.1270    3.5500   -2.1550 C.ar   21  TRP21       0.0152
     45  C        -10.3230    2.8760   -5.7330 C.2    21  TRP21       0.3845
     46  O        -11.0800    1.9620   -6.0950 O.co2  21  TRP21      -0.2437
     47  OXT      -10.4270    4.0430   -6.2080 O.co2  21  TRP21      -0.2437
@<TRIPOS>BOND
     1    47    45   ar
     2    46    45   ar
     3    28    27    1
     4    45    34    1
     5    30    29    1
     6    34    33    1
     7    34    35    1
     8    27    29    1
     9    27    26    1
    10    32    31    2
    11    33    31   am
    12    31    26    1
    13    35    36    1
    14    26    25    1
    15    43    42   ar
    16    43    44   ar
    17    36    44   ar
    18    36    37   ar
    19    42    41   ar
    20    25    23   am
    21    44    39   ar
    22    24    23    2
    23     6     4    1
    24    37    38   ar
    25    23    18    1
    26     8     7    2
    27     1     2    1
    28    41    40   ar
    29    39    38   ar
    30    39    40   ar
    31     2     7    1
    32     2     3    1
    33    20    19    1
    34     7     9   am
    35     4     3    1
    36     4     5    1
    37    19    18    1
    38    19    21    1
    39    18    17    1
    40    17    15   am
    41     9    10    1
    42    15    10    1
    43    15    16    2
    44    10    11    1
    45    21    22    1
    46    13    12   ar
    47    11    12    1
    48    12    14   ar
