@<TRIPOS>MOLECULE
9957262
 56 59 0 0 0
SMALL
GASTEIGER

@<TRIPOS>ATOM
      1 S          -9.6435    3.6412   -4.3469 S.O2    1  LIG11       0.0668
      2 O          -7.5160    3.2719   -1.5811 O.3     1  LIG11      -0.4435
      3 O          -5.6402    5.1643   -0.5454 O.3     1  LIG11      -0.4771
      4 O         -10.1366    2.9838   -5.5427 O.2     1  LIG11      -0.1505
      5 O          -9.8990    5.0527   -4.1398 O.2     1  LIG11      -0.1505
      6 O          -7.1242    1.2298    0.4798 O.3     1  LIG11      -0.4914
      7 N          -7.9650    3.4122   -4.4006 N.pl3   1  LIG11      -0.1968
      8 N          -6.6935    5.2887   -4.4911 N.ar    1  LIG11      -0.2044
      9 N          -5.6014    6.2496   -2.6135 N.ar    1  LIG11      -0.1867
     10 N          -5.2056    8.5647   -4.1530 N.ar    1  LIG11      -0.2331
     11 N          -5.3997    7.1960   -6.1030 N.ar    1  LIG11      -0.2331
     12 C          -7.1949    4.3587   -3.6674 C.ar    1  LIG11       0.1883
     13 C          -6.9789    4.3006   -2.3046 C.ar    1  LIG11       0.2307
     14 C          -6.0952    5.2597   -1.8457 C.ar    1  LIG11       0.2639
     15 C          -7.8966    3.4781   -0.2711 C.ar    1  LIG11       0.1702
     16 C         -10.2050    2.7228   -2.9890 C.2     1  LIG11       0.0729
     17 C          -5.9453    6.2523   -3.9182 C.ar    1  LIG11       0.2027
     18 C          -7.6985    2.4586    0.6726 C.ar    1  LIG11       0.1621
     19 C         -10.9959    3.3050   -2.0745 C.2     1  LIG11      -0.0353
     20 C         -11.5025    2.6750   -0.8431 C.ar    1  LIG11      -0.0237
     21 C          -8.5829    4.6467    0.1073 C.ar    1  LIG11      -0.0157
     22 C          -5.4861    7.3880   -4.7649 C.ar    1  LIG11       0.1978
     23 C          -8.1630    2.6432    1.9826 C.ar    1  LIG11      -0.0163
     24 C          -9.0189    4.8233    1.4213 C.ar    1  LIG11      -0.0581
     25 C          -8.8066    3.8214    2.3607 C.ar    1  LIG11      -0.0581
     26 C         -11.1549    1.3809   -0.4338 C.ar    1  LIG11      -0.0546
     27 C         -12.3391    3.4333   -0.0095 C.ar    1  LIG11      -0.0546
     28 C         -11.6314    0.8605    0.7732 C.ar    1  LIG11      -0.0612
     29 C         -12.8137    2.9144    1.1976 C.ar    1  LIG11      -0.0612
     30 C         -12.4595    1.6268    1.5885 C.ar    1  LIG11      -0.0617
     31 C          -4.7867    6.2315   -0.1463 C.3     1  LIG11       0.0805
     32 C          -6.2129    1.0860   -0.5993 C.3     1  LIG11       0.0790
     33 C          -4.8402    9.5878   -4.9458 C.ar    1  LIG11       0.0315
     34 C          -5.0185    8.2538   -6.8420 C.ar    1  LIG11       0.0315
     35 C          -4.7281    9.4872   -6.3110 C.ar    1  LIG11      -0.0254
     36 H          -7.6986    3.4928   -5.3840 H       1  LIG11       0.1753
     37 H          -9.8781    1.6967   -2.9471 H       1  LIG11       0.0838
     38 H         -11.2804    4.3490   -2.2048 H       1  LIG11       0.0637
     39 H          -8.7992    5.4275   -0.6168 H       1  LIG11       0.0655
     40 H          -8.0207    1.8541    2.7173 H       1  LIG11       0.0655
     41 H          -9.5395    5.7342    1.7046 H       1  LIG11       0.0619
     42 H          -9.1558    3.9456    3.3822 H       1  LIG11       0.0619
     43 H         -10.4926    0.7575   -1.0265 H       1  LIG11       0.0623
     44 H         -12.6217    4.4475   -0.2842 H       1  LIG11       0.0623
     45 H         -11.3428   -0.1416    1.0797 H       1  LIG11       0.0618
     46 H         -13.4531    3.5202    1.8337 H       1  LIG11       0.0618
     47 H         -12.8220    1.2229    2.5296 H       1  LIG11       0.0618
     48 H          -4.5295    6.0752    0.9058 H       1  LIG11       0.0660
     49 H          -5.2943    7.1991   -0.2250 H       1  LIG11       0.0660
     50 H          -3.8543    6.2263   -0.7210 H       1  LIG11       0.0660
     51 H          -5.6386    0.1705   -0.4263 H       1  LIG11       0.0660
     52 H          -5.4997    1.9152   -0.6476 H       1  LIG11       0.0660
     53 H          -6.7500    0.9558   -1.5436 H       1  LIG11       0.0660
     54 H          -4.6377   10.5230   -4.4317 H       1  LIG11       0.0831
     55 H          -4.9556    8.0730   -7.9112 H       1  LIG11       0.0831
     56 H          -4.4323   10.3243   -6.9274 H       1  LIG11       0.0648
@<TRIPOS>BOND
     1     1     4    2
     2     1     5    2
     3     1     7    1
     4     1    16    1
     5     2    13    1
     6     2    15    1
     7     3    14    1
     8     3    31    1
     9     6    18    1
    10     6    32    1
    11     7    12    1
    12     8    12   ar
    13     8    17   ar
    14     9    14   ar
    15     9    17   ar
    16    10    22   ar
    17    10    33   ar
    18    11    22   ar
    19    11    34   ar
    20    12    13   ar
    21    13    14   ar
    22    15    18   ar
    23    15    21   ar
    24    16    19    2
    25    17    22    1
    26    18    23   ar
    27    19    20    1
    28    20    26   ar
    29    20    27   ar
    30    21    24   ar
    31    23    25   ar
    32    24    25   ar
    33    26    28   ar
    34    27    29   ar
    35    28    30   ar
    36    29    30   ar
    37    33    35   ar
    38    34    35   ar
    39     7    36    1
    40    16    37    1
    41    19    38    1
    42    21    39    1
    43    23    40    1
    44    24    41    1
    45    25    42    1
    46    26    43    1
    47    27    44    1
    48    28    45    1
    49    29    46    1
    50    30    47    1
    51    31    48    1
    52    31    49    1
    53    31    50    1
    54    32    51    1
    55    32    52    1
    56    32    53    1
    57    33    54    1
    58    34    55    1
    59    35    56    1
@<TRIPOS>MOLECULE
../1EDN/3STEPMIN_17-21.pdb
 47 48 0 0 0
SMALL
GASTEIGER

@<TRIPOS>ATOM
      1  N         -5.4290    0.8830   -1.1740 N.3    17  LEU17      -0.1231
      2  CA        -6.8230    0.6710   -0.7980 C.3    17  LEU17       0.1693
      3  CB        -6.9230   -0.4370    0.2770 C.3    17  LEU17       0.0284
      4  CG        -6.4950   -1.8450   -0.1910 C.3    17  LEU17       0.0019
      5  CD1       -6.5150   -2.8060    0.9980 C.3    17  LEU17       0.0001
      6  CD2       -7.4310   -2.4140   -1.2600 C.3    17  LEU17       0.0001
      7  C         -7.3990    2.0370   -0.3760 C.2    17  LEU17       0.2592
      8  O         -7.4670    2.9330   -1.2040 O.2    17  LEU17      -0.2718
      9  N         -7.7380    2.2560    0.8970 N.am   18  ASP18      -0.1960
     10  CA        -8.5130    3.4280    1.3730 C.3    18  ASP18       0.1840
     11  CB        -9.0510    3.1310    2.7840 C.3    18  ASP18       0.1450
     12  CG       -10.5470    3.4340    2.8500 C.2    18  ASP18       0.3671
     13  OD1      -11.3300    2.4930    2.5610 O.co2  18  ASP18      -0.2456
     14  OD2      -10.9050    4.5930    3.1470 O.co2  18  ASP18      -0.2456
     15  C         -7.8270    4.8120    1.2910 C.2    18  ASP18       0.2622
     16  O         -8.3890    5.8210    1.7350 O.2    18  ASP18      -0.2715
     17  N         -6.6250    4.8510    0.7010 N.am   19  ILE19      -0.1963
     18  CA        -5.9180    6.0210    0.1680 C.3    19  ILE19       0.1727
     19  CB        -4.3960    5.7260    0.0740 C.3    19  ILE19       0.0290
     20  CG2       -3.6150    6.9530   -0.4300 C.3    19  ILE19       0.0023
     21  CG1       -3.7730    5.2100    1.3920 C.3    19  ILE19       0.0022
     22  CD1       -3.8620    6.1700    2.5820 C.3    19  ILE19       0.0001
     23  C         -6.4970    6.4050   -1.2110 C.2    19  ILE19       0.2616
     24  O         -7.0070    7.5130   -1.3720 O.2    19  ILE19      -0.2715
     25  N         -6.3950    5.4980   -2.1940 N.am   20  ILE20      -0.1963
     26  CA        -6.9990    5.5490   -3.5400 C.3    20  ILE20       0.1727
     27  CB        -6.0900    6.2460   -4.5940 C.3    20  ILE20       0.0290
     28  CG2       -6.7980    6.2490   -5.9680 C.3    20  ILE20       0.0023
     29  CG1       -5.7140    7.6970   -4.2070 C.3    20  ILE20       0.0022
     30  CD1       -4.7810    8.4150   -5.1910 C.3    20  ILE20       0.0001
     31  C         -7.3180    4.1070   -3.9880 C.2    20  ILE20       0.2617
     32  O         -6.4020    3.3070   -4.2100 O.2    20  ILE20      -0.2715
     33  N         -8.6100    3.8210   -4.1620 N.am   21  TRP21      -0.1938
     34  CA        -9.2240    2.5950   -4.7020 C.3    21  TRP21       0.2021
     35  CB        -9.7020    1.6830   -3.5450 C.3    21  TRP21       0.0612
     36  CG       -10.4970    2.2370   -2.3850 C.ar   21  TRP21       0.0007
     37  CD1      -10.6860    1.5470   -1.2340 C.ar   21  TRP21       0.0946
     38  NE1      -11.3350    2.3340   -0.3040 N.ar   21  TRP21      -0.2442
     39  CE2      -11.5720    3.5950   -0.7990 C.ar   21  TRP21       0.0810
     40  CZ2      -12.0950    4.7480   -0.2000 C.ar   21  TRP21       0.0191
     41  CH2      -12.2340    5.9130   -0.9670 C.ar   21  TRP21       0.0015
     42  CZ3      -11.8800    5.8920   -2.3260 C.ar   21  TRP21       0.0001
     43  CE3      -11.3480    4.7280   -2.9100 C.ar   21  TRP21       0.0012
     44  CD2      -11.1270    3.5500   -2.1550 C.ar   21  TRP21       0.0152
     45  C        -10.3230    2.8760   -5.7330 C.2    21  TRP21       0.3845
     46  O        -11.0800    1.9620   -6.0950 O.co2  21  TRP21      -0.2437
     47  OXT      -10.4270    4.0430   -6.2080 O.co2  21  TRP21      -0.2437
@<TRIPOS>BOND
     1    47    45   ar
     2    46    45   ar
     3    28    27    1
     4    45    34    1
     5    30    29    1
     6    34    33    1
     7    34    35    1
     8    27    29    1
     9    27    26    1
    10    32    31    2
    11    33    31   am
    12    31    26    1
    13    35    36    1
    14    26    25    1
    15    43    42   ar
    16    43    44   ar
    17    36    44   ar
    18    36    37   ar
    19    42    41   ar
    20    25    23   am
    21    44    39   ar
    22    24    23    2
    23     6     4    1
    24    37    38   ar
    25    23    18    1
    26     8     7    2
    27     1     2    1
    28    41    40   ar
    29    39    38   ar
    30    39    40   ar
    31     2     7    1
    32     2     3    1
    33    20    19    1
    34     7     9   am
    35     4     3    1
    36     4     5    1
    37    19    18    1
    38    19    21    1
    39    18    17    1
    40    17    15   am
    41     9    10    1
    42    15    10    1
    43    15    16    2
    44    10    11    1
    45    21    22    1
    46    13    12   ar
    47    11    12    1
    48    12    14   ar
