@<TRIPOS>MOLECULE
HTS1204-03362316-01
 87 90 0 0 0
SMALL
USER_CHARGES

@<TRIPOS>ATOM
      1 C1         -6.4157    6.2980   -2.4294 C.ar    1  UNK11      -0.0199
      2 N1         -5.5954    6.9460   -4.4085 N.ar    1  UNK11      -0.3494
      3 C2        -10.3587    2.3169   -1.7162 C.2     1  UNK11       0.3028
      4 C3         -5.5374    7.1634   -3.0595 C.ar    1  UNK11       0.0086
      5 C4         -6.4530    5.3353    1.3636 C.2     1  UNK11       0.2342
      6 C5         -7.0181    5.5155   -3.4738 C.ar    1  UNK11       0.0031
      7 C6         -6.8749    2.6777   -0.8947 C.2     1  UNK11       0.2340
      8 C7         -6.4696    5.9226   -4.6935 C.ar    1  UNK11       0.0491
      9 N2         -9.3400    2.4249   -0.8077 N.am    1  UNK11      -0.2879
     10 N3        -11.3409    3.2999   -1.5979 N.am    1  UNK11      -0.2856
     11 N4         -7.2317    3.9269   -0.4470 N.am    1  UNK11      -0.3022
     12 N5         -7.0152    4.3050    2.0879 N.am    1  UNK11      -0.3054
     13 C8         -6.3151    5.0277   -0.1580 C.3     1  UNK11       0.1034
     14 C9         -8.0657    1.6762   -0.9367 C.3     1  UNK11       0.1011
     15 C10        -7.1547    4.2831    3.5574 C.3     1  UNK11       0.0680
     16 C11        -6.7037    6.2930   -0.9465 C.3     1  UNK11       0.0013
     17 C12        -6.5148    3.0127    4.1837 C.2     1  UNK11       0.0623
     18 C13        -8.6274    4.3590    3.9994 C.3     1  UNK11       0.0133
     19 O1        -10.3853    1.4474   -2.5818 O.2     1  UNK11      -0.2526
     20 O2         -5.7234    2.3766   -1.1938 O.2     1  UNK11      -0.2738
     21 O3         -6.0802    6.3939    1.8641 O.2     1  UNK11      -0.2738
     22 N6        -10.5830    3.6967    2.6564 N.ar    1  UNK11      -0.2598
     23 O4         -6.1682    2.1328    3.3305 O.co2   1  UNK11      -0.5479
     24 C14        -7.9802    0.6216    0.1724 C.3     1  UNK11      -0.0236
     25 C15        -9.5736    3.2906    3.4762 C.ar    1  UNK11       0.0434
     26 O5         -6.4743    2.9712    5.4439 O.co2   1  UNK11      -0.5479
     27 C16        -4.8798    7.7127   -5.4018 C.3     1  UNK11       0.0119
     28 C17       -11.0827    4.5925   -0.9404 C.3     1  UNK11       0.0161
     29 C18       -12.5406    3.1635   -2.4172 C.3     1  UNK11       0.0161
     30 C19        -6.8352    5.3344   -5.9195 C.ar    1  UNK11      -0.0376
     31 C20        -7.9936    4.5018   -3.5128 C.ar    1  UNK11      -0.0523
     32 C21        -6.7087   -0.2502    0.1926 C.3     1  UNK11      -0.0446
     33 C22       -11.4869    2.7670    2.2663 C.ar    1  UNK11       0.0279
     34 C23        -9.4652    1.9628    3.8869 C.ar    1  UNK11      -0.0403
     35 C24        -6.8069   -1.2755    1.3263 C.3     1  UNK11      -0.0626
     36 C25        -6.4549   -0.9694   -1.1322 C.3     1  UNK11      -0.0626
     37 C26       -12.1287    5.6855   -1.1624 C.3     1  UNK11      -0.0371
     38 C27       -12.5033    3.9375   -3.7346 C.3     1  UNK11      -0.0371
     39 C28        -8.3496    3.8853   -4.7158 C.ar    1  UNK11      -0.0611
     40 C29        -7.7749    4.3006   -5.9069 C.ar    1  UNK11      -0.0598
     41 C30       -11.4205    1.4283    2.6010 C.ar    1  UNK11      -0.0436
     42 C31       -10.3843    1.0220    3.4252 C.ar    1  UNK11      -0.0586
     43 C32       -12.1882    6.2425   -2.5872 C.3     1  UNK11      -0.0516
     44 C33       -11.7951    5.2888   -3.7099 C.3     1  UNK11      -0.0516
     45 H          -4.8995    7.9330   -2.6445 H       1  UNK11       0.0812
     46 H          -9.6163    2.6931    0.1299 H       1  UNK11       0.1510
     47 H          -8.1667    4.0226   -0.0756 H       1  UNK11       0.1495
     48 H          -6.8085    3.3668    1.7416 H       1  UNK11       0.1494
     49 H          -5.2817    4.7248   -0.3571 H       1  UNK11       0.0598
     50 H          -8.0450    1.2087   -1.9273 H       1  UNK11       0.0595
     51 H          -6.6189    5.1487    3.9656 H       1  UNK11       0.0564
     52 H          -7.7746    6.4967   -0.8084 H       1  UNK11       0.0337
     53 H          -6.1829    7.1575   -0.5117 H       1  UNK11       0.0337
     54 H          -8.6977    4.3558    5.0951 H       1  UNK11       0.0350
     55 H          -9.0241    5.3338    3.6831 H       1  UNK11       0.0350
     56 H          -8.0633    1.1249    1.1442 H       1  UNK11       0.0290
     57 H          -8.8601   -0.0319    0.0957 H       1  UNK11       0.0290
     58 H          -4.2913    8.4923   -4.9117 H       1  UNK11       0.0456
     59 H          -4.2217    7.0376   -5.9537 H       1  UNK11       0.0456
     60 H          -5.6109    8.1728   -6.0723 H       1  UNK11       0.0456
     61 H         -11.0108    4.3996    0.1295 H       1  UNK11       0.0465
     62 H         -10.0990    4.9575   -1.2524 H       1  UNK11       0.0465
     63 H         -12.7115    2.1035   -2.6435 H       1  UNK11       0.0465
     64 H         -13.4043    3.4625   -1.8150 H       1  UNK11       0.0465
     65 H          -6.3962    5.6613   -6.8551 H       1  UNK11       0.0638
     66 H          -8.4799    4.1840   -2.6057 H       1  UNK11       0.0624
     67 H          -5.8434    0.3867    0.4094 H       1  UNK11       0.0296
     68 H         -12.2952    3.1400    1.6444 H       1  UNK11       0.0829
     69 H          -8.6760    1.6448    4.5634 H       1  UNK11       0.0635
     70 H          -7.6348   -1.9732    1.1606 H       1  UNK11       0.0232
     71 H          -5.8828   -1.8587    1.4031 H       1  UNK11       0.0232
     72 H          -6.9683   -0.7790    2.2890 H       1  UNK11       0.0232
     73 H          -7.3105   -1.5895   -1.4185 H       1  UNK11       0.0232
     74 H          -6.2602   -0.2613   -1.9428 H       1  UNK11       0.0232
     75 H          -5.5758   -1.6194   -1.0562 H       1  UNK11       0.0232
     76 H         -13.1217    5.3309   -0.8645 H       1  UNK11       0.0280
     77 H         -11.9097    6.5206   -0.4844 H       1  UNK11       0.0280
     78 H         -12.0050    3.3181   -4.4915 H       1  UNK11       0.0280
     79 H         -13.5335    4.0718   -4.0870 H       1  UNK11       0.0280
     80 H          -9.0844    3.0831   -4.7044 H       1  UNK11       0.0618
     81 H          -8.0624    3.8183   -6.8368 H       1  UNK11       0.0618
     82 H         -12.1586    0.7252    2.2357 H       1  UNK11       0.0633
     83 H         -10.2863   -0.0175    3.7235 H       1  UNK11       0.0619
     84 H         -13.1943    6.6368   -2.7725 H       1  UNK11       0.0266
     85 H         -11.5139    7.1077   -2.6441 H       1  UNK11       0.0266
     86 H         -10.7164    5.1217   -3.6611 H       1  UNK11       0.0266
     87 H         -11.9650    5.7897   -4.6715 H       1  UNK11       0.0266
@<TRIPOS>BOND
     1     2     4   ar
     2     3     9   am
     3     1     4   ar
     4     5    13    1
     5     1     6   ar
     6     7    11   am
     7     6     8   ar
     8     9    14    1
     9     3    10   am
    10    11    13    1
    11     5    12   am
    12    13    16    1
    13     7    14    1
    14    12    15    1
    15     1    16    1
    16    15    17    1
    17    15    18    1
    18     3    19    2
    19     7    20    2
    20     5    21    2
    21    22    25   ar
    22    17    23   ar
    23    14    24    1
    24    18    25    1
    25    17    26   ar
    26     2    27    1
    27    10    28    1
    28    10    29    1
    29     8    30   ar
    30     6    31   ar
    31    24    32    1
    32    22    33   ar
    33    25    34   ar
    34    32    35    1
    35    32    36    1
    36    28    37    1
    37    29    38    1
    38    31    39   ar
    39    39    40   ar
    40    41    42   ar
    41    34    42   ar
    42    37    43    1
    43    38    44    1
    44     2     8   ar
    45    30    40   ar
    46    33    41   ar
    47    43    44    1
    48     4    45    1
    49     9    46    1
    50    11    47    1
    51    12    48    1
    52    13    49    1
    53    14    50    1
    54    15    51    1
    55    16    52    1
    56    16    53    1
    57    18    54    1
    58    18    55    1
    59    24    56    1
    60    24    57    1
    61    27    58    1
    62    27    59    1
    63    27    60    1
    64    28    61    1
    65    28    62    1
    66    29    63    1
    67    29    64    1
    68    30    65    1
    69    31    66    1
    70    32    67    1
    71    33    68    1
    72    34    69    1
    73    35    70    1
    74    35    71    1
    75    35    72    1
    76    36    73    1
    77    36    74    1
    78    36    75    1
    79    37    76    1
    80    37    77    1
    81    38    78    1
    82    38    79    1
    83    39    80    1
    84    40    81    1
    85    41    82    1
    86    42    83    1
    87    43    84    1
    88    43    85    1
    89    44    86    1
    90    44    87    1
@<TRIPOS>MOLECULE
../1EDN/3STEPMIN_17-21.pdb
 47 48 0 0 0
SMALL
GASTEIGER

@<TRIPOS>ATOM
      1  N         -5.4290    0.8830   -1.1740 N.3    17  LEU17      -0.1231
      2  CA        -6.8230    0.6710   -0.7980 C.3    17  LEU17       0.1693
      3  CB        -6.9230   -0.4370    0.2770 C.3    17  LEU17       0.0284
      4  CG        -6.4950   -1.8450   -0.1910 C.3    17  LEU17       0.0019
      5  CD1       -6.5150   -2.8060    0.9980 C.3    17  LEU17       0.0001
      6  CD2       -7.4310   -2.4140   -1.2600 C.3    17  LEU17       0.0001
      7  C         -7.3990    2.0370   -0.3760 C.2    17  LEU17       0.2592
      8  O         -7.4670    2.9330   -1.2040 O.2    17  LEU17      -0.2718
      9  N         -7.7380    2.2560    0.8970 N.am   18  ASP18      -0.1960
     10  CA        -8.5130    3.4280    1.3730 C.3    18  ASP18       0.1840
     11  CB        -9.0510    3.1310    2.7840 C.3    18  ASP18       0.1450
     12  CG       -10.5470    3.4340    2.8500 C.2    18  ASP18       0.3671
     13  OD1      -11.3300    2.4930    2.5610 O.co2  18  ASP18      -0.2456
     14  OD2      -10.9050    4.5930    3.1470 O.co2  18  ASP18      -0.2456
     15  C         -7.8270    4.8120    1.2910 C.2    18  ASP18       0.2622
     16  O         -8.3890    5.8210    1.7350 O.2    18  ASP18      -0.2715
     17  N         -6.6250    4.8510    0.7010 N.am   19  ILE19      -0.1963
     18  CA        -5.9180    6.0210    0.1680 C.3    19  ILE19       0.1727
     19  CB        -4.3960    5.7260    0.0740 C.3    19  ILE19       0.0290
     20  CG2       -3.6150    6.9530   -0.4300 C.3    19  ILE19       0.0023
     21  CG1       -3.7730    5.2100    1.3920 C.3    19  ILE19       0.0022
     22  CD1       -3.8620    6.1700    2.5820 C.3    19  ILE19       0.0001
     23  C         -6.4970    6.4050   -1.2110 C.2    19  ILE19       0.2616
     24  O         -7.0070    7.5130   -1.3720 O.2    19  ILE19      -0.2715
     25  N         -6.3950    5.4980   -2.1940 N.am   20  ILE20      -0.1963
     26  CA        -6.9990    5.5490   -3.5400 C.3    20  ILE20       0.1727
     27  CB        -6.0900    6.2460   -4.5940 C.3    20  ILE20       0.0290
     28  CG2       -6.7980    6.2490   -5.9680 C.3    20  ILE20       0.0023
     29  CG1       -5.7140    7.6970   -4.2070 C.3    20  ILE20       0.0022
     30  CD1       -4.7810    8.4150   -5.1910 C.3    20  ILE20       0.0001
     31  C         -7.3180    4.1070   -3.9880 C.2    20  ILE20       0.2617
     32  O         -6.4020    3.3070   -4.2100 O.2    20  ILE20      -0.2715
     33  N         -8.6100    3.8210   -4.1620 N.am   21  TRP21      -0.1938
     34  CA        -9.2240    2.5950   -4.7020 C.3    21  TRP21       0.2021
     35  CB        -9.7020    1.6830   -3.5450 C.3    21  TRP21       0.0612
     36  CG       -10.4970    2.2370   -2.3850 C.ar   21  TRP21       0.0007
     37  CD1      -10.6860    1.5470   -1.2340 C.ar   21  TRP21       0.0946
     38  NE1      -11.3350    2.3340   -0.3040 N.ar   21  TRP21      -0.2442
     39  CE2      -11.5720    3.5950   -0.7990 C.ar   21  TRP21       0.0810
     40  CZ2      -12.0950    4.7480   -0.2000 C.ar   21  TRP21       0.0191
     41  CH2      -12.2340    5.9130   -0.9670 C.ar   21  TRP21       0.0015
     42  CZ3      -11.8800    5.8920   -2.3260 C.ar   21  TRP21       0.0001
     43  CE3      -11.3480    4.7280   -2.9100 C.ar   21  TRP21       0.0012
     44  CD2      -11.1270    3.5500   -2.1550 C.ar   21  TRP21       0.0152
     45  C        -10.3230    2.8760   -5.7330 C.2    21  TRP21       0.3845
     46  O        -11.0800    1.9620   -6.0950 O.co2  21  TRP21      -0.2437
     47  OXT      -10.4270    4.0430   -6.2080 O.co2  21  TRP21      -0.2437
@<TRIPOS>BOND
     1    47    45   ar
     2    46    45   ar
     3    28    27    1
     4    45    34    1
     5    30    29    1
     6    34    33    1
     7    34    35    1
     8    27    29    1
     9    27    26    1
    10    32    31    2
    11    33    31   am
    12    31    26    1
    13    35    36    1
    14    26    25    1
    15    43    42   ar
    16    43    44   ar
    17    36    44   ar
    18    36    37   ar
    19    42    41   ar
    20    25    23   am
    21    44    39   ar
    22    24    23    2
    23     6     4    1
    24    37    38   ar
    25    23    18    1
    26     8     7    2
    27     1     2    1
    28    41    40   ar
    29    39    38   ar
    30    39    40   ar
    31     2     7    1
    32     2     3    1
    33    20    19    1
    34     7     9   am
    35     4     3    1
    36     4     5    1
    37    19    18    1
    38    19    21    1
    39    18    17    1
    40    17    15   am
    41     9    10    1
    42    15    10    1
    43    15    16    2
    44    10    11    1
    45    21    22    1
    46    13    12   ar
    47    11    12    1
    48    12    14   ar
