@<TRIPOS>MOLECULE
16004692
 52 54 0 0 0
SMALL
GASTEIGER

@<TRIPOS>ATOM
      1 BR         -4.6315    7.5491   -2.8276 Br      1  LIG11      -0.0503
      2 BR         -9.6650    2.8346   -5.2101 Br      1  LIG11      -0.0472
      3 S          -6.7740    1.4490   -0.6476 S.O2    1  LIG11       0.1104
      4 O          -9.8042    5.8839    1.4793 O.3     1  LIG11      -0.4724
      5 O          -5.4793    0.8636   -0.8973 O.2     1  LIG11      -0.1381
      6 O          -7.3749    2.3434   -1.6058 O.2     1  LIG11      -0.1381
      7 O         -11.7727    3.6489    0.2821 O.3     1  LIG11      -0.4590
      8 N          -7.8783    0.2389   -0.3438 N.3     1  LIG11      -0.1771
      9 N          -6.6499    2.2316    0.8209 N.pl3   1  LIG11      -0.1889
     10 N          -8.5344    2.0696    2.1008 N.ar    1  LIG11      -0.2186
     11 N         -10.0360    3.8622    2.4878 N.ar    1  LIG11      -0.2008
     12 N         -10.7737    2.2999   -1.2603 N.ar    1  LIG11      -0.2022
     13 N         -11.5612    4.4607   -1.9124 N.ar    1  LIG11      -0.2022
     14 C          -7.5699   -0.7624    0.6910 C.3     1  LIG11       0.0185
     15 C          -8.1524    4.2033    0.9958 C.ar    1  LIG11       0.0848
     16 C          -7.8180    2.8868    1.3075 C.ar    1  LIG11       0.1532
     17 C          -7.2779   -2.1234    0.0638 C.3     1  LIG11      -0.0416
     18 C          -7.3341    5.0645    0.1228 C.ar    1  LIG11      -0.0094
     19 C          -9.3331    4.6061    1.6106 C.ar    1  LIG11       0.2276
     20 C          -5.8164   -2.3030   -0.3203 C.3     1  LIG11      -0.0641
     21 C          -6.0138    5.4093    0.4644 C.ar    1  LIG11      -0.0527
     22 C          -7.8235    5.5150   -1.1146 C.ar    1  LIG11      -0.0527
     23 C         -10.9387    6.0142    0.6051 C.3     1  LIG11       0.1252
     24 C          -5.2064    6.1410   -0.4144 C.ar    1  LIG11      -0.0472
     25 C          -7.0321    6.2705   -1.9845 C.ar    1  LIG11      -0.0472
     26 C          -9.6136    2.6117    2.6660 C.ar    1  LIG11       0.1219
     27 C         -12.0908    4.9873    0.6749 C.3     1  LIG11       0.1267
     28 C          -5.7209    6.5695   -1.6347 C.ar    1  LIG11       0.0179
     29 C         -11.3833    3.4723   -1.0199 C.ar    1  LIG11       0.3180
     30 C         -10.2945    2.1315   -2.5131 C.ar    1  LIG11       0.0483
     31 C         -11.0552    4.2362   -3.1460 C.ar    1  LIG11       0.0483
     32 C         -10.3966    3.0821   -3.5008 C.ar    1  LIG11       0.0543
     33 H          -8.8161    0.6388   -0.2524 H       1  LIG11       0.1493
     34 H          -5.8497    2.8534    0.7458 H       1  LIG11       0.1763
     35 H          -6.7588   -0.4436    1.3523 H       1  LIG11       0.0442
     36 H          -8.4650   -0.8532    1.3188 H       1  LIG11       0.0442
     37 H          -7.5251   -2.9007    0.7967 H       1  LIG11       0.0275
     38 H          -7.9116   -2.2971   -0.8138 H       1  LIG11       0.0275
     39 H          -5.1561   -2.0758    0.5233 H       1  LIG11       0.0230
     40 H          -5.6303   -3.3388   -0.6212 H       1  LIG11       0.0230
     41 H          -5.5417   -1.6628   -1.1617 H       1  LIG11       0.0230
     42 H          -5.5901    5.0989    1.4181 H       1  LIG11       0.0624
     43 H          -8.8241    5.2459   -1.4375 H       1  LIG11       0.0624
     44 H         -11.3765    6.9864    0.8642 H       1  LIG11       0.0731
     45 H         -10.5646    6.1332   -0.4125 H       1  LIG11       0.0731
     46 H          -4.1788    6.3659   -0.1405 H       1  LIG11       0.0629
     47 H          -7.4431    6.5962   -2.9365 H       1  LIG11       0.0629
     48 H         -10.1975    1.9839    3.3297 H       1  LIG11       0.1049
     49 H         -12.9492    5.3399    0.0890 H       1  LIG11       0.0732
     50 H         -12.4363    4.9231    1.7134 H       1  LIG11       0.0732
     51 H          -9.7875    1.1865   -2.6890 H       1  LIG11       0.0843
     52 H         -11.1882    5.0516   -3.8511 H       1  LIG11       0.0843
@<TRIPOS>BOND
     1     1    28    1
     2     2    32    1
     3     3     5    2
     4     3     6    2
     5     3     8    1
     6     3     9    1
     7     4    19    1
     8     4    23    1
     9     7    27    1
    10     7    29    1
    11     8    14    1
    12     9    16    1
    13    10    16   ar
    14    10    26   ar
    15    11    19   ar
    16    11    26   ar
    17    12    29   ar
    18    12    30   ar
    19    13    29   ar
    20    13    31   ar
    21    14    17    1
    22    15    16   ar
    23    15    18    1
    24    15    19   ar
    25    17    20    1
    26    18    21   ar
    27    18    22   ar
    28    21    24   ar
    29    22    25   ar
    30    23    27    1
    31    24    28   ar
    32    25    28   ar
    33    30    32   ar
    34    31    32   ar
    35     8    33    1
    36     9    34    1
    37    14    35    1
    38    14    36    1
    39    17    37    1
    40    17    38    1
    41    20    39    1
    42    20    40    1
    43    20    41    1
    44    21    42    1
    45    22    43    1
    46    23    44    1
    47    23    45    1
    48    24    46    1
    49    25    47    1
    50    26    48    1
    51    27    49    1
    52    27    50    1
    53    30    51    1
    54    31    52    1
@<TRIPOS>MOLECULE
../1EDN/3STEPMIN_17-21.pdb
 47 48 0 0 0
SMALL
GASTEIGER

@<TRIPOS>ATOM
      1  N         -5.4290    0.8830   -1.1740 N.3    17  LEU17      -0.1231
      2  CA        -6.8230    0.6710   -0.7980 C.3    17  LEU17       0.1693
      3  CB        -6.9230   -0.4370    0.2770 C.3    17  LEU17       0.0284
      4  CG        -6.4950   -1.8450   -0.1910 C.3    17  LEU17       0.0019
      5  CD1       -6.5150   -2.8060    0.9980 C.3    17  LEU17       0.0001
      6  CD2       -7.4310   -2.4140   -1.2600 C.3    17  LEU17       0.0001
      7  C         -7.3990    2.0370   -0.3760 C.2    17  LEU17       0.2592
      8  O         -7.4670    2.9330   -1.2040 O.2    17  LEU17      -0.2718
      9  N         -7.7380    2.2560    0.8970 N.am   18  ASP18      -0.1960
     10  CA        -8.5130    3.4280    1.3730 C.3    18  ASP18       0.1840
     11  CB        -9.0510    3.1310    2.7840 C.3    18  ASP18       0.1450
     12  CG       -10.5470    3.4340    2.8500 C.2    18  ASP18       0.3671
     13  OD1      -11.3300    2.4930    2.5610 O.co2  18  ASP18      -0.2456
     14  OD2      -10.9050    4.5930    3.1470 O.co2  18  ASP18      -0.2456
     15  C         -7.8270    4.8120    1.2910 C.2    18  ASP18       0.2622
     16  O         -8.3890    5.8210    1.7350 O.2    18  ASP18      -0.2715
     17  N         -6.6250    4.8510    0.7010 N.am   19  ILE19      -0.1963
     18  CA        -5.9180    6.0210    0.1680 C.3    19  ILE19       0.1727
     19  CB        -4.3960    5.7260    0.0740 C.3    19  ILE19       0.0290
     20  CG2       -3.6150    6.9530   -0.4300 C.3    19  ILE19       0.0023
     21  CG1       -3.7730    5.2100    1.3920 C.3    19  ILE19       0.0022
     22  CD1       -3.8620    6.1700    2.5820 C.3    19  ILE19       0.0001
     23  C         -6.4970    6.4050   -1.2110 C.2    19  ILE19       0.2616
     24  O         -7.0070    7.5130   -1.3720 O.2    19  ILE19      -0.2715
     25  N         -6.3950    5.4980   -2.1940 N.am   20  ILE20      -0.1963
     26  CA        -6.9990    5.5490   -3.5400 C.3    20  ILE20       0.1727
     27  CB        -6.0900    6.2460   -4.5940 C.3    20  ILE20       0.0290
     28  CG2       -6.7980    6.2490   -5.9680 C.3    20  ILE20       0.0023
     29  CG1       -5.7140    7.6970   -4.2070 C.3    20  ILE20       0.0022
     30  CD1       -4.7810    8.4150   -5.1910 C.3    20  ILE20       0.0001
     31  C         -7.3180    4.1070   -3.9880 C.2    20  ILE20       0.2617
     32  O         -6.4020    3.3070   -4.2100 O.2    20  ILE20      -0.2715
     33  N         -8.6100    3.8210   -4.1620 N.am   21  TRP21      -0.1938
     34  CA        -9.2240    2.5950   -4.7020 C.3    21  TRP21       0.2021
     35  CB        -9.7020    1.6830   -3.5450 C.3    21  TRP21       0.0612
     36  CG       -10.4970    2.2370   -2.3850 C.ar   21  TRP21       0.0007
     37  CD1      -10.6860    1.5470   -1.2340 C.ar   21  TRP21       0.0946
     38  NE1      -11.3350    2.3340   -0.3040 N.ar   21  TRP21      -0.2442
     39  CE2      -11.5720    3.5950   -0.7990 C.ar   21  TRP21       0.0810
     40  CZ2      -12.0950    4.7480   -0.2000 C.ar   21  TRP21       0.0191
     41  CH2      -12.2340    5.9130   -0.9670 C.ar   21  TRP21       0.0015
     42  CZ3      -11.8800    5.8920   -2.3260 C.ar   21  TRP21       0.0001
     43  CE3      -11.3480    4.7280   -2.9100 C.ar   21  TRP21       0.0012
     44  CD2      -11.1270    3.5500   -2.1550 C.ar   21  TRP21       0.0152
     45  C        -10.3230    2.8760   -5.7330 C.2    21  TRP21       0.3845
     46  O        -11.0800    1.9620   -6.0950 O.co2  21  TRP21      -0.2437
     47  OXT      -10.4270    4.0430   -6.2080 O.co2  21  TRP21      -0.2437
@<TRIPOS>BOND
     1    47    45   ar
     2    46    45   ar
     3    28    27    1
     4    45    34    1
     5    30    29    1
     6    34    33    1
     7    34    35    1
     8    27    29    1
     9    27    26    1
    10    32    31    2
    11    33    31   am
    12    31    26    1
    13    35    36    1
    14    26    25    1
    15    43    42   ar
    16    43    44   ar
    17    36    44   ar
    18    36    37   ar
    19    42    41   ar
    20    25    23   am
    21    44    39   ar
    22    24    23    2
    23     6     4    1
    24    37    38   ar
    25    23    18    1
    26     8     7    2
    27     1     2    1
    28    41    40   ar
    29    39    38   ar
    30    39    40   ar
    31     2     7    1
    32     2     3    1
    33    20    19    1
    34     7     9   am
    35     4     3    1
    36     4     5    1
    37    19    18    1
    38    19    21    1
    39    18    17    1
    40    17    15   am
    41     9    10    1
    42    15    10    1
    43    15    16    2
    44    10    11    1
    45    21    22    1
    46    13    12   ar
    47    11    12    1
    48    12    14   ar
