@<TRIPOS>MOLECULE
177236
 51 53 0 0 0
SMALL
GASTEIGER

@<TRIPOS>ATOM
      1 O          -8.6257    3.6723    1.5212 O.3     1  LIG11      -0.3632
      2 O          -6.9180    4.3409   -1.7957 O.3     1  LIG11      -0.4494
      3 O          -4.9869    3.9328    0.0974 O.co2   1  LIG11      -0.5459
      4 O          -6.0087    5.4886    1.4075 O.co2   1  LIG11      -0.5459
      5 O          -6.5039    6.6571   -5.7973 O.3     1  LIG11      -0.4794
      6 O          -5.3362    8.7646   -1.7814 O.3     1  LIG11      -0.4794
      7 N          -6.6669    5.4525   -3.7767 N.ar    1  LIG11      -0.1594
      8 N          -6.1188    6.5496   -1.7467 N.ar    1  LIG11      -0.1594
      9 C          -8.2302    3.4366    0.1315 C.3     1  LIG11       0.1609
     10 C          -7.2629    4.5539   -0.3977 C.3     1  LIG11       0.1791
     11 C          -7.5609    2.0306    0.0898 C.ar    1  LIG11      -0.0075
     12 C          -9.6056    3.3272   -0.6225 C.ar    1  LIG11      -0.0075
     13 C          -7.3245    1.3765   -1.1352 C.ar    1  LIG11      -0.0554
     14 C         -10.6124    2.4927   -0.0835 C.ar    1  LIG11      -0.0554
     15 C          -7.1815    1.3606    1.2678 C.ar    1  LIG11      -0.0554
     16 C          -9.9114    4.0085   -1.8112 C.ar    1  LIG11      -0.0554
     17 C          -5.9703    4.6425    0.4592 C.2     1  LIG11       0.0856
     18 C          -9.1589    4.9515    1.8328 C.3     1  LIG11       0.0382
     19 C          -6.7482    0.1040   -1.1790 C.ar    1  LIG11      -0.0614
     20 C         -11.8581    2.3515   -0.6998 C.ar    1  LIG11      -0.0614
     21 C          -6.6111    0.0851    1.2245 C.ar    1  LIG11      -0.0614
     22 C         -11.1539    3.8556   -2.4381 C.ar    1  LIG11      -0.0614
     23 C          -6.3969   -0.5441    0.0015 C.ar    1  LIG11      -0.0617
     24 C         -12.1270    3.0311   -1.8819 C.ar    1  LIG11      -0.0617
     25 C          -6.5119    5.4847   -2.4460 C.ar    1  LIG11       0.3249
     26 C          -6.3494    6.5856   -4.4231 C.ar    1  LIG11       0.2240
     27 C          -5.7829    7.6381   -2.4461 C.ar    1  LIG11       0.2240
     28 C          -5.8885    7.7218   -3.8083 C.ar    1  LIG11       0.0617
     29 C          -7.0509    5.4644   -6.3526 C.3     1  LIG11       0.0804
     30 C          -5.1382    8.5237   -0.3847 C.3     1  LIG11       0.0804
     31 H          -7.7954    5.5119   -0.3175 H       1  LIG11       0.0834
     32 H          -7.5771    1.8669   -2.0724 H       1  LIG11       0.0621
     33 H         -10.4158    1.9492    0.8400 H       1  LIG11       0.0621
     34 H          -7.3104    1.8428    2.2344 H       1  LIG11       0.0621
     35 H          -9.1967    4.6692   -2.2879 H       1  LIG11       0.0621
     36 H          -9.5840    4.8953    2.8392 H       1  LIG11       0.0524
     37 H          -9.9595    5.2441    1.1485 H       1  LIG11       0.0524
     38 H          -8.3887    5.7222    1.8510 H       1  LIG11       0.0524
     39 H          -6.5599   -0.3671   -2.1386 H       1  LIG11       0.0618
     40 H         -12.6096    1.7075   -0.2529 H       1  LIG11       0.0618
     41 H          -6.3164   -0.4009    2.1493 H       1  LIG11       0.0618
     42 H         -11.3527    4.3849   -3.3658 H       1  LIG11       0.0618
     43 H          -5.9357   -1.5256   -0.0321 H       1  LIG11       0.0618
     44 H         -13.0902    2.9184   -2.3700 H       1  LIG11       0.0618
     45 H          -5.6355    8.6174   -4.3536 H       1  LIG11       0.0724
     46 H          -7.1631    5.6207   -7.4298 H       1  LIG11       0.0660
     47 H          -8.0461    5.2542   -5.9443 H       1  LIG11       0.0660
     48 H          -6.3764    4.6135   -6.2077 H       1  LIG11       0.0660
     49 H          -4.7431    9.4448    0.0547 H       1  LIG11       0.0660
     50 H          -4.3989    7.7324   -0.2177 H       1  LIG11       0.0660
     51 H          -6.0862    8.2980    0.1159 H       1  LIG11       0.0660
@<TRIPOS>BOND
     1     1     9    1
     2     1    18    1
     3     2    10    1
     4     2    25    1
     5     3    17   ar
     6     4    17   ar
     7     5    26    1
     8     5    29    1
     9     6    27    1
    10     6    30    1
    11     7    25   ar
    12     7    26   ar
    13     8    25   ar
    14     8    27   ar
    15     9    10    1
    16     9    11    1
    17     9    12    1
    18    10    17    1
    19    11    13   ar
    20    11    15   ar
    21    12    14   ar
    22    12    16   ar
    23    13    19   ar
    24    14    20   ar
    25    15    21   ar
    26    16    22   ar
    27    19    23   ar
    28    20    24   ar
    29    21    23   ar
    30    22    24   ar
    31    26    28   ar
    32    27    28   ar
    33    10    31    1
    34    13    32    1
    35    14    33    1
    36    15    34    1
    37    16    35    1
    38    18    36    1
    39    18    37    1
    40    18    38    1
    41    19    39    1
    42    20    40    1
    43    21    41    1
    44    22    42    1
    45    23    43    1
    46    24    44    1
    47    28    45    1
    48    29    46    1
    49    29    47    1
    50    29    48    1
    51    30    49    1
    52    30    50    1
    53    30    51    1
@<TRIPOS>MOLECULE
../1EDN/3STEPMIN_17-21.pdb
 47 48 0 0 0
SMALL
GASTEIGER

@<TRIPOS>ATOM
      1  N         -5.4290    0.8830   -1.1740 N.3    17  LEU17      -0.1231
      2  CA        -6.8230    0.6710   -0.7980 C.3    17  LEU17       0.1693
      3  CB        -6.9230   -0.4370    0.2770 C.3    17  LEU17       0.0284
      4  CG        -6.4950   -1.8450   -0.1910 C.3    17  LEU17       0.0019
      5  CD1       -6.5150   -2.8060    0.9980 C.3    17  LEU17       0.0001
      6  CD2       -7.4310   -2.4140   -1.2600 C.3    17  LEU17       0.0001
      7  C         -7.3990    2.0370   -0.3760 C.2    17  LEU17       0.2592
      8  O         -7.4670    2.9330   -1.2040 O.2    17  LEU17      -0.2718
      9  N         -7.7380    2.2560    0.8970 N.am   18  ASP18      -0.1960
     10  CA        -8.5130    3.4280    1.3730 C.3    18  ASP18       0.1840
     11  CB        -9.0510    3.1310    2.7840 C.3    18  ASP18       0.1450
     12  CG       -10.5470    3.4340    2.8500 C.2    18  ASP18       0.3671
     13  OD1      -11.3300    2.4930    2.5610 O.co2  18  ASP18      -0.2456
     14  OD2      -10.9050    4.5930    3.1470 O.co2  18  ASP18      -0.2456
     15  C         -7.8270    4.8120    1.2910 C.2    18  ASP18       0.2622
     16  O         -8.3890    5.8210    1.7350 O.2    18  ASP18      -0.2715
     17  N         -6.6250    4.8510    0.7010 N.am   19  ILE19      -0.1963
     18  CA        -5.9180    6.0210    0.1680 C.3    19  ILE19       0.1727
     19  CB        -4.3960    5.7260    0.0740 C.3    19  ILE19       0.0290
     20  CG2       -3.6150    6.9530   -0.4300 C.3    19  ILE19       0.0023
     21  CG1       -3.7730    5.2100    1.3920 C.3    19  ILE19       0.0022
     22  CD1       -3.8620    6.1700    2.5820 C.3    19  ILE19       0.0001
     23  C         -6.4970    6.4050   -1.2110 C.2    19  ILE19       0.2616
     24  O         -7.0070    7.5130   -1.3720 O.2    19  ILE19      -0.2715
     25  N         -6.3950    5.4980   -2.1940 N.am   20  ILE20      -0.1963
     26  CA        -6.9990    5.5490   -3.5400 C.3    20  ILE20       0.1727
     27  CB        -6.0900    6.2460   -4.5940 C.3    20  ILE20       0.0290
     28  CG2       -6.7980    6.2490   -5.9680 C.3    20  ILE20       0.0023
     29  CG1       -5.7140    7.6970   -4.2070 C.3    20  ILE20       0.0022
     30  CD1       -4.7810    8.4150   -5.1910 C.3    20  ILE20       0.0001
     31  C         -7.3180    4.1070   -3.9880 C.2    20  ILE20       0.2617
     32  O         -6.4020    3.3070   -4.2100 O.2    20  ILE20      -0.2715
     33  N         -8.6100    3.8210   -4.1620 N.am   21  TRP21      -0.1938
     34  CA        -9.2240    2.5950   -4.7020 C.3    21  TRP21       0.2021
     35  CB        -9.7020    1.6830   -3.5450 C.3    21  TRP21       0.0612
     36  CG       -10.4970    2.2370   -2.3850 C.ar   21  TRP21       0.0007
     37  CD1      -10.6860    1.5470   -1.2340 C.ar   21  TRP21       0.0946
     38  NE1      -11.3350    2.3340   -0.3040 N.ar   21  TRP21      -0.2442
     39  CE2      -11.5720    3.5950   -0.7990 C.ar   21  TRP21       0.0810
     40  CZ2      -12.0950    4.7480   -0.2000 C.ar   21  TRP21       0.0191
     41  CH2      -12.2340    5.9130   -0.9670 C.ar   21  TRP21       0.0015
     42  CZ3      -11.8800    5.8920   -2.3260 C.ar   21  TRP21       0.0001
     43  CE3      -11.3480    4.7280   -2.9100 C.ar   21  TRP21       0.0012
     44  CD2      -11.1270    3.5500   -2.1550 C.ar   21  TRP21       0.0152
     45  C        -10.3230    2.8760   -5.7330 C.2    21  TRP21       0.3845
     46  O        -11.0800    1.9620   -6.0950 O.co2  21  TRP21      -0.2437
     47  OXT      -10.4270    4.0430   -6.2080 O.co2  21  TRP21      -0.2437
@<TRIPOS>BOND
     1    47    45   ar
     2    46    45   ar
     3    28    27    1
     4    45    34    1
     5    30    29    1
     6    34    33    1
     7    34    35    1
     8    27    29    1
     9    27    26    1
    10    32    31    2
    11    33    31   am
    12    31    26    1
    13    35    36    1
    14    26    25    1
    15    43    42   ar
    16    43    44   ar
    17    36    44   ar
    18    36    37   ar
    19    42    41   ar
    20    25    23   am
    21    44    39   ar
    22    24    23    2
    23     6     4    1
    24    37    38   ar
    25    23    18    1
    26     8     7    2
    27     1     2    1
    28    41    40   ar
    29    39    38   ar
    30    39    40   ar
    31     2     7    1
    32     2     3    1
    33    20    19    1
    34     7     9   am
    35     4     3    1
    36     4     5    1
    37    19    18    1
    38    19    21    1
    39    18    17    1
    40    17    15   am
    41     9    10    1
    42    15    10    1
    43    15    16    2
    44    10    11    1
    45    21    22    1
    46    13    12   ar
    47    11    12    1
    48    12    14   ar
