@<TRIPOS>MOLECULE
178103
 66 70 0 0 0
SMALL
GASTEIGER

@<TRIPOS>ATOM
      1 O          -6.0154    5.5522    1.7671 O.co2   1  LIG11      -0.5495
      2 O          -4.4048    5.5092    0.1598 O.co2   1  LIG11      -0.5495
      3 O         -12.4865    3.8961   -1.2641 O.3     1  LIG11      -0.4920
      4 O          -8.0208    2.2994   -2.1659 O.3     1  LIG11      -0.4893
      5 O          -5.7914    9.6388   -4.1178 O.3     1  LIG11      -0.4526
      6 O          -5.2119    8.0936   -5.8802 O.3     1  LIG11      -0.4526
      7 O          -6.5869   -1.6814    0.2851 O.3     1  LIG11      -0.4950
      8 O         -10.2176    1.7554   -5.0365 O.3     1  LIG11      -0.3917
      9 C          -6.5735    4.7908   -0.4168 C.3     1  LIG11       0.0203
     10 C          -7.6747    3.9263    0.2306 C.3     1  LIG11       0.0218
     11 C          -7.2605    6.0378   -1.0311 C.3     1  LIG11       0.0184
     12 C          -8.9331    4.4131   -0.4493 C.ar    1  LIG11      -0.0320
     13 C          -8.7006    5.5864   -1.1675 C.ar    1  LIG11      -0.0353
     14 C          -7.3858    2.4293    0.1216 C.ar    1  LIG11       0.0025
     15 C          -6.6749    6.5275   -2.3517 C.ar    1  LIG11      -0.0356
     16 C          -5.5771    5.3319    0.6036 C.2     1  LIG11       0.0466
     17 C         -10.2022    3.8482   -0.3883 C.ar    1  LIG11      -0.0159
     18 C          -9.7400    6.2177   -1.8388 C.ar    1  LIG11      -0.0542
     19 C          -7.6024    1.6490   -1.0325 C.ar    1  LIG11       0.1278
     20 C         -11.2300    4.4275   -1.1330 C.ar    1  LIG11       0.1208
     21 C          -6.4975    7.9098   -2.5498 C.ar    1  LIG11      -0.0124
     22 C         -11.0061    5.6264   -1.8257 C.ar    1  LIG11      -0.0196
     23 C          -6.3506    5.6375   -3.4045 C.ar    1  LIG11      -0.0543
     24 C          -6.8450    1.8012    1.2586 C.ar    1  LIG11      -0.0510
     25 C          -6.0045    8.3423   -3.7627 C.ar    1  LIG11       0.1665
     26 C          -5.8387    6.1038   -4.6203 C.ar    1  LIG11      -0.0159
     27 C          -7.3361    0.2699   -1.0093 C.ar    1  LIG11       0.0221
     28 C          -6.5859    0.4306    1.2710 C.ar    1  LIG11      -0.0194
     29 C          -5.6799    7.4631   -4.7685 C.ar    1  LIG11       0.1662
     30 C          -6.8575   -0.3457    0.1486 C.ar    1  LIG11       0.1236
     31 C         -12.5472    2.4685   -1.1796 C.3     1  LIG11       0.0893
     32 C          -5.2520    9.4668   -5.4422 C.3     1  LIG11       0.2332
     33 C          -8.7604    1.5343   -3.1144 C.3     1  LIG11       0.1126
     34 C         -13.6331    1.9850   -2.1354 C.3     1  LIG11      -0.0215
     35 C          -9.4802    2.4882   -4.0605 C.3     1  LIG11       0.0783
     36 C          -7.2242   -2.5448   -0.6480 C.3     1  LIG11       0.0788
     37 C         -13.7530    0.4712   -2.1259 C.3     1  LIG11      -0.0622
     38 H         -10.6745    2.4216   -5.5794 H       1  LIG11       0.2095
     39 H          -6.0154    4.2077   -1.1588 H       1  LIG11       0.0379
     40 H          -7.8238    4.1638    1.2917 H       1  LIG11       0.0405
     41 H          -7.2552    6.8693   -0.3118 H       1  LIG11       0.0404
     42 H         -10.3543    2.9562    0.2082 H       1  LIG11       0.0657
     43 H          -9.5710    7.1437   -2.3786 H       1  LIG11       0.0622
     44 H          -6.7371    8.6231   -1.7681 H       1  LIG11       0.0658
     45 H         -11.8203    6.0896   -2.3748 H       1  LIG11       0.0654
     46 H          -6.4924    4.5667   -3.2714 H       1  LIG11       0.0622
     47 H          -6.6143    2.3942    2.1444 H       1  LIG11       0.0623
     48 H          -5.5728    5.4163   -5.4136 H       1  LIG11       0.0655
     49 H          -7.4695   -0.3151   -1.9095 H       1  LIG11       0.0691
     50 H          -6.1694   -0.0268    2.1638 H       1  LIG11       0.0654
     51 H         -12.7895    2.1886   -0.1482 H       1  LIG11       0.0696
     52 H         -11.6032    1.9922   -1.4713 H       1  LIG11       0.0696
     53 H          -4.2338    9.8729   -5.4626 H       1  LIG11       0.1166
     54 H          -5.8685   10.0372   -6.1464 H       1  LIG11       0.1166
     55 H          -9.5035    0.8932   -2.6226 H       1  LIG11       0.0720
     56 H          -8.0832    0.8986   -3.6971 H       1  LIG11       0.0720
     57 H         -13.4004    2.3294   -3.1505 H       1  LIG11       0.0295
     58 H         -14.5939    2.4422   -1.8722 H       1  LIG11       0.0295
     59 H         -10.1747    3.1257   -3.5087 H       1  LIG11       0.0591
     60 H          -8.7630    3.1405   -4.5696 H       1  LIG11       0.0591
     61 H          -7.0768   -3.5736   -0.3053 H       1  LIG11       0.0660
     62 H          -6.7682   -2.4566   -1.6393 H       1  LIG11       0.0660
     63 H          -8.3035   -2.3615   -0.6920 H       1  LIG11       0.0660
     64 H         -12.8017    0.0004   -2.3947 H       1  LIG11       0.0231
     65 H         -14.5079    0.1452   -2.8480 H       1  LIG11       0.0231
     66 H         -14.0477    0.1084   -1.1361 H       1  LIG11       0.0231
@<TRIPOS>BOND
     1     1    16   ar
     2     2    16   ar
     3     3    20    1
     4     3    31    1
     5     4    19    1
     6     4    33    1
     7     5    25    1
     8     5    32    1
     9     6    29    1
    10     6    32    1
    11     7    30    1
    12     7    36    1
    13     8    35    1
    14     9    10    1
    15     9    11    1
    16     9    16    1
    17    10    12    1
    18    10    14    1
    19    11    13    1
    20    11    15    1
    21    12    13   ar
    22    12    17   ar
    23    13    18   ar
    24    14    19   ar
    25    14    24   ar
    26    15    21   ar
    27    15    23   ar
    28    17    20   ar
    29    18    22   ar
    30    19    27   ar
    31    20    22   ar
    32    21    25   ar
    33    23    26   ar
    34    24    28   ar
    35    25    29   ar
    36    26    29   ar
    37    27    30   ar
    38    28    30   ar
    39    31    34    1
    40    33    35    1
    41    34    37    1
    42     8    38    1
    43     9    39    1
    44    10    40    1
    45    11    41    1
    46    17    42    1
    47    18    43    1
    48    21    44    1
    49    22    45    1
    50    23    46    1
    51    24    47    1
    52    26    48    1
    53    27    49    1
    54    28    50    1
    55    31    51    1
    56    31    52    1
    57    32    53    1
    58    32    54    1
    59    33    55    1
    60    33    56    1
    61    34    57    1
    62    34    58    1
    63    35    59    1
    64    35    60    1
    65    36    61    1
    66    36    62    1
    67    36    63    1
    68    37    64    1
    69    37    65    1
    70    37    66    1
@<TRIPOS>MOLECULE
../1EDN/3STEPMIN_17-21.pdb
 47 48 0 0 0
SMALL
GASTEIGER

@<TRIPOS>ATOM
      1  N         -5.4290    0.8830   -1.1740 N.3    17  LEU17      -0.1231
      2  CA        -6.8230    0.6710   -0.7980 C.3    17  LEU17       0.1693
      3  CB        -6.9230   -0.4370    0.2770 C.3    17  LEU17       0.0284
      4  CG        -6.4950   -1.8450   -0.1910 C.3    17  LEU17       0.0019
      5  CD1       -6.5150   -2.8060    0.9980 C.3    17  LEU17       0.0001
      6  CD2       -7.4310   -2.4140   -1.2600 C.3    17  LEU17       0.0001
      7  C         -7.3990    2.0370   -0.3760 C.2    17  LEU17       0.2592
      8  O         -7.4670    2.9330   -1.2040 O.2    17  LEU17      -0.2718
      9  N         -7.7380    2.2560    0.8970 N.am   18  ASP18      -0.1960
     10  CA        -8.5130    3.4280    1.3730 C.3    18  ASP18       0.1840
     11  CB        -9.0510    3.1310    2.7840 C.3    18  ASP18       0.1450
     12  CG       -10.5470    3.4340    2.8500 C.2    18  ASP18       0.3671
     13  OD1      -11.3300    2.4930    2.5610 O.co2  18  ASP18      -0.2456
     14  OD2      -10.9050    4.5930    3.1470 O.co2  18  ASP18      -0.2456
     15  C         -7.8270    4.8120    1.2910 C.2    18  ASP18       0.2622
     16  O         -8.3890    5.8210    1.7350 O.2    18  ASP18      -0.2715
     17  N         -6.6250    4.8510    0.7010 N.am   19  ILE19      -0.1963
     18  CA        -5.9180    6.0210    0.1680 C.3    19  ILE19       0.1727
     19  CB        -4.3960    5.7260    0.0740 C.3    19  ILE19       0.0290
     20  CG2       -3.6150    6.9530   -0.4300 C.3    19  ILE19       0.0023
     21  CG1       -3.7730    5.2100    1.3920 C.3    19  ILE19       0.0022
     22  CD1       -3.8620    6.1700    2.5820 C.3    19  ILE19       0.0001
     23  C         -6.4970    6.4050   -1.2110 C.2    19  ILE19       0.2616
     24  O         -7.0070    7.5130   -1.3720 O.2    19  ILE19      -0.2715
     25  N         -6.3950    5.4980   -2.1940 N.am   20  ILE20      -0.1963
     26  CA        -6.9990    5.5490   -3.5400 C.3    20  ILE20       0.1727
     27  CB        -6.0900    6.2460   -4.5940 C.3    20  ILE20       0.0290
     28  CG2       -6.7980    6.2490   -5.9680 C.3    20  ILE20       0.0023
     29  CG1       -5.7140    7.6970   -4.2070 C.3    20  ILE20       0.0022
     30  CD1       -4.7810    8.4150   -5.1910 C.3    20  ILE20       0.0001
     31  C         -7.3180    4.1070   -3.9880 C.2    20  ILE20       0.2617
     32  O         -6.4020    3.3070   -4.2100 O.2    20  ILE20      -0.2715
     33  N         -8.6100    3.8210   -4.1620 N.am   21  TRP21      -0.1938
     34  CA        -9.2240    2.5950   -4.7020 C.3    21  TRP21       0.2021
     35  CB        -9.7020    1.6830   -3.5450 C.3    21  TRP21       0.0612
     36  CG       -10.4970    2.2370   -2.3850 C.ar   21  TRP21       0.0007
     37  CD1      -10.6860    1.5470   -1.2340 C.ar   21  TRP21       0.0946
     38  NE1      -11.3350    2.3340   -0.3040 N.ar   21  TRP21      -0.2442
     39  CE2      -11.5720    3.5950   -0.7990 C.ar   21  TRP21       0.0810
     40  CZ2      -12.0950    4.7480   -0.2000 C.ar   21  TRP21       0.0191
     41  CH2      -12.2340    5.9130   -0.9670 C.ar   21  TRP21       0.0015
     42  CZ3      -11.8800    5.8920   -2.3260 C.ar   21  TRP21       0.0001
     43  CE3      -11.3480    4.7280   -2.9100 C.ar   21  TRP21       0.0012
     44  CD2      -11.1270    3.5500   -2.1550 C.ar   21  TRP21       0.0152
     45  C        -10.3230    2.8760   -5.7330 C.2    21  TRP21       0.3845
     46  O        -11.0800    1.9620   -6.0950 O.co2  21  TRP21      -0.2437
     47  OXT      -10.4270    4.0430   -6.2080 O.co2  21  TRP21      -0.2437
@<TRIPOS>BOND
     1    47    45   ar
     2    46    45   ar
     3    28    27    1
     4    45    34    1
     5    30    29    1
     6    34    33    1
     7    34    35    1
     8    27    29    1
     9    27    26    1
    10    32    31    2
    11    33    31   am
    12    31    26    1
    13    35    36    1
    14    26    25    1
    15    43    42   ar
    16    43    44   ar
    17    36    44   ar
    18    36    37   ar
    19    42    41   ar
    20    25    23   am
    21    44    39   ar
    22    24    23    2
    23     6     4    1
    24    37    38   ar
    25    23    18    1
    26     8     7    2
    27     1     2    1
    28    41    40   ar
    29    39    38   ar
    30    39    40   ar
    31     2     7    1
    32     2     3    1
    33    20    19    1
    34     7     9   am
    35     4     3    1
    36     4     5    1
    37    19    18    1
    38    19    21    1
    39    18    17    1
    40    17    15   am
    41     9    10    1
    42    15    10    1
    43    15    16    2
    44    10    11    1
    45    21    22    1
    46    13    12   ar
    47    11    12    1
    48    12    14   ar
