@<TRIPOS>MOLECULE
01012527H
 86 88 0 0 0
SMALL
GASTEIGER

@<TRIPOS>ATOM
      1 C          -6.1669    3.7313   -2.5704 C.3     1  LIG11       0.0531
      2 C          -6.4570    2.8399   -1.3682 C.3     1  LIG11      -0.0111
      3 C          -7.2864    4.7577   -2.6867 C.3     1  LIG11       0.0375
      4 C          -4.8424    4.3471   -2.1385 C.2     1  LIG11       0.0509
      5 N          -7.3637    3.7291   -0.4647 N.4     1  LIG11       0.2448
      6 C          -7.2344    1.5284   -1.6410 C.3     1  LIG11      -0.0039
      7 C          -8.2832    4.4078   -3.7805 C.ar    1  LIG11      -0.0313
      8 C          -7.8243    4.9233   -1.2687 C.3     1  LIG11      -0.0234
      9 O          -3.8435    3.5986   -2.2930 O.co2   1  LIG11      -0.5493
     10 O          -4.9300    5.4692   -1.5657 O.co2   1  LIG11      -0.5493
     11 C          -6.6229    4.1777    0.8088 C.3     1  LIG11       0.0465
     12 C          -6.4783    0.2897   -2.2330 C.3     1  LIG11      -0.0298
     13 C          -9.4368    3.6438   -3.5699 C.ar    1  LIG11      -0.0122
     14 C          -7.9933    4.8637   -5.0983 C.ar    1  LIG11      -0.0124
     15 C          -6.4540    3.0396    1.8203 C.2     1  LIG11       0.2608
     16 C          -7.4224   -0.9417   -2.0105 C.3     1  LIG11      -0.0479
     17 C          -6.2079    0.4748   -3.7344 C.3     1  LIG11      -0.0596
     18 C          -5.1407    0.0599   -1.5090 C.3     1  LIG11      -0.0596
     19 C         -10.2165    3.3255   -4.6641 C.ar    1  LIG11       0.1702
     20 C          -8.8246    4.5678   -6.1848 C.ar    1  LIG11       0.1656
     21 N          -5.5540    3.2090    2.8721 N.am    1  LIG11      -0.2971
     22 O          -7.1437    2.0231    1.6824 O.2     1  LIG11      -0.2697
     23 C          -6.9393   -2.2961   -2.5448 C.3     1  LIG11      -0.0554
     24 C          -9.9213    3.7674   -5.9328 C.ar    1  LIG11       0.2075
     25 O         -11.3351    2.5504   -4.6268 O.3     1  LIG11      -0.4525
     26 O          -8.6305    4.9730   -7.4722 O.3     1  LIG11      -0.4913
     27 C          -4.6448    4.3676    2.9872 C.3     1  LIG11       0.0148
     28 C          -5.2328    2.0218    3.6746 C.3     1  LIG11       0.0148
     29 C          -7.9159   -3.4090   -2.1871 C.3     1  LIG11      -0.0653
     30 O         -10.8289    3.3257   -6.8495 O.3     1  LIG11      -0.4489
     31 C         -11.6684    2.4928   -6.0290 C.3     1  LIG11       0.2334
     32 C          -7.7453    6.0711   -7.6649 C.3     1  LIG11       0.0790
     33 C          -4.6028    4.9781    4.3912 C.3     1  LIG11      -0.0374
     34 C          -6.3492    1.5555    4.6184 C.3     1  LIG11      -0.0374
     35 C          -3.8388    6.3029    4.4548 C.3     1  LIG11      -0.0545
     36 C          -6.7531    2.6028    5.6532 C.3     1  LIG11      -0.0545
     37 C          -2.3670    6.1731    4.0976 C.3     1  LIG11      -0.0652
     38 C          -7.7982    2.0646    6.6179 C.3     1  LIG11      -0.0652
     39 H          -6.0003    3.1929   -3.5042 H       1  LIG11       0.0424
     40 H          -5.5829    2.5910   -0.7577 H       1  LIG11       0.0858
     41 H          -6.8882    5.7404   -2.9790 H       1  LIG11       0.0409
     42 H          -8.1557    3.1658   -0.1334 H       1  LIG11       0.2042
     43 H          -8.1046    1.7311   -2.2702 H       1  LIG11       0.0325
     44 H          -7.6531    1.2015   -0.6797 H       1  LIG11       0.0325
     45 H          -8.9147    4.9703   -1.1920 H       1  LIG11       0.0821
     46 H          -7.4155    5.8281   -0.8034 H       1  LIG11       0.0821
     47 H          -7.2400    4.9520    1.2775 H       1  LIG11       0.0913
     48 H          -5.6594    4.5738    0.4991 H       1  LIG11       0.0913
     49 H          -9.7255    3.2672   -2.5962 H       1  LIG11       0.0658
     50 H          -7.0843    5.4437   -5.2509 H       1  LIG11       0.0658
     51 H          -8.3990   -0.7236   -2.4637 H       1  LIG11       0.0270
     52 H          -7.6051   -1.0509   -0.9322 H       1  LIG11       0.0270
     53 H          -5.4671    1.2566   -3.9186 H       1  LIG11       0.0235
     54 H          -7.1254    0.7329   -4.2749 H       1  LIG11       0.0235
     55 H          -5.7959   -0.4305   -4.1900 H       1  LIG11       0.0235
     56 H          -4.4539    0.8986   -1.6562 H       1  LIG11       0.0235
     57 H          -4.6214   -0.8268   -1.8863 H       1  LIG11       0.0235
     58 H          -5.2916   -0.0701   -0.4318 H       1  LIG11       0.0235
     59 H          -5.9601   -2.5517   -2.1286 H       1  LIG11       0.0263
     60 H          -6.8395   -2.2654   -3.6341 H       1  LIG11       0.0263
     61 H          -4.9472    5.1574    2.2988 H       1  LIG11       0.0464
     62 H          -3.6521    4.0258    2.6729 H       1  LIG11       0.0464
     63 H          -4.3171    2.2028    4.2475 H       1  LIG11       0.0464
     64 H          -5.0017    1.2069    2.9760 H       1  LIG11       0.0464
     65 H          -8.0123   -3.5129   -1.1015 H       1  LIG11       0.0230
     66 H          -7.5638   -4.3646   -2.5884 H       1  LIG11       0.0230
     67 H          -8.9085   -3.2107   -2.6039 H       1  LIG11       0.0230
     68 H         -12.7089    2.8097   -6.1554 H       1  LIG11       0.1166
     69 H         -11.5727    1.4553   -6.3690 H       1  LIG11       0.1166
     70 H          -7.8140    6.3759   -8.7130 H       1  LIG11       0.0660
     71 H          -6.7094    5.7794   -7.4702 H       1  LIG11       0.0660
     72 H          -8.0359    6.9293   -7.0485 H       1  LIG11       0.0660
     73 H          -4.1591    4.2744    5.1032 H       1  LIG11       0.0280
     74 H          -5.6277    5.1688    4.7289 H       1  LIG11       0.0280
     75 H          -5.9973    0.6542    5.1376 H       1  LIG11       0.0280
     76 H          -7.2342    1.2552    4.0469 H       1  LIG11       0.0280
     77 H          -3.9191    6.7006    5.4734 H       1  LIG11       0.0263
     78 H          -4.3113    7.0375    3.7916 H       1  LIG11       0.0263
     79 H          -7.1660    3.4840    5.1514 H       1  LIG11       0.0263
     80 H          -5.8748    2.9231    6.2247 H       1  LIG11       0.0263
     81 H          -1.8777    5.4149    4.7169 H       1  LIG11       0.0230
     82 H          -1.8561    7.1269    4.2615 H       1  LIG11       0.0230
     83 H          -2.2337    5.9019    3.0463 H       1  LIG11       0.0230
     84 H          -8.7038    1.7595    6.0837 H       1  LIG11       0.0230
     85 H          -8.0745    2.8357    7.3430 H       1  LIG11       0.0230
     86 H          -7.4151    1.2003    7.1693 H       1  LIG11       0.0230
@<TRIPOS>BOND
     1     1     2    1
     2     1     3    1
     3     1     4    1
     4     2     5    1
     5     2     6    1
     6     3     8    1
     7     3     7    1
     8     4    10   ar
     9     4     9   ar
    10     5     8    1
    11     5    11    1
    12     6    12    1
    13     7    14   ar
    14     7    13   ar
    15    11    15    1
    16    12    18    1
    17    12    17    1
    18    12    16    1
    19    13    19   ar
    20    14    20   ar
    21    15    22    2
    22    15    21   am
    23    16    23    1
    24    19    25    1
    25    19    24   ar
    26    20    24   ar
    27    20    26    1
    28    21    28    1
    29    21    27    1
    30    23    29    1
    31    24    30    1
    32    25    31    1
    33    26    32    1
    34    27    33    1
    35    28    34    1
    36    30    31    1
    37    33    35    1
    38    34    36    1
    39    35    37    1
    40    36    38    1
    41     1    39    1
    42     2    40    1
    43     3    41    1
    44     5    42    1
    45     6    43    1
    46     6    44    1
    47     8    45    1
    48     8    46    1
    49    11    47    1
    50    11    48    1
    51    13    49    1
    52    14    50    1
    53    16    51    1
    54    16    52    1
    55    17    53    1
    56    17    54    1
    57    17    55    1
    58    18    56    1
    59    18    57    1
    60    18    58    1
    61    23    59    1
    62    23    60    1
    63    27    61    1
    64    27    62    1
    65    28    63    1
    66    28    64    1
    67    29    65    1
    68    29    66    1
    69    29    67    1
    70    31    68    1
    71    31    69    1
    72    32    70    1
    73    32    71    1
    74    32    72    1
    75    33    73    1
    76    33    74    1
    77    34    75    1
    78    34    76    1
    79    35    77    1
    80    35    78    1
    81    36    79    1
    82    36    80    1
    83    37    81    1
    84    37    82    1
    85    37    83    1
    86    38    84    1
    87    38    85    1
    88    38    86    1
@<TRIPOS>MOLECULE
../1EDN/PCA1_17-21.pdb
 47 48 0 0 0
SMALL
GASTEIGER

@<TRIPOS>ATOM
      1  N         -4.6470   -0.3680   -1.6750 N.3    17  LEU17      -0.1231
      2  CA        -5.8920   -0.8550   -2.2480 C.3    17  LEU17       0.1693
      3  CB        -6.0770   -2.3450   -1.7480 C.3    17  LEU17       0.0284
      4  CG        -7.4170   -3.0590   -2.1890 C.3    17  LEU17       0.0019
      5  CD1       -7.4920   -3.1930   -3.7220 C.3    17  LEU17       0.0001
      6  CD2       -7.5340   -4.4610   -1.6100 C.3    17  LEU17       0.0001
      7  C         -7.0080    0.1010   -1.8270 C.2    17  LEU17       0.2592
      8  O         -7.6220    0.6590   -2.7680 O.2    17  LEU17      -0.2718
      9  N         -7.2890    0.1920   -0.5460 N.am   18  ASP18      -0.1960
     10  CA        -8.2730    1.1070    0.1120 C.3    18  ASP18       0.1840
     11  CB        -8.8290    0.4520    1.4200 C.3    18  ASP18       0.1450
     12  CG        -9.9140    1.2760    2.0640 C.2    18  ASP18       0.3671
     13  OD1      -10.8560    1.7240    1.3430 O.co2  18  ASP18      -0.2456
     14  OD2       -9.7710    1.5960    3.2830 O.co2  18  ASP18      -0.2456
     15  C         -7.6270    2.4530    0.4740 C.2    18  ASP18       0.2622
     16  O         -8.0770    3.4620   -0.0480 O.2    18  ASP18      -0.2715
     17  N         -6.6010    2.4770    1.3340 N.am   19  ILE19      -0.1963
     18  CA        -6.1660    3.6270    2.0790 C.3    19  ILE19       0.1727
     19  CB        -5.0730    3.3500    3.1520 C.3    19  ILE19       0.0290
     20  CG2       -4.5850    4.5470    3.9530 C.3    19  ILE19       0.0023
     21  CG1       -5.6210    2.1420    3.9730 C.3    19  ILE19       0.0022
     22  CD1       -6.7460    2.5740    4.8760 C.3    19  ILE19       0.0001
     23  C         -5.6740    4.7260    1.1170 C.2    19  ILE19       0.2616
     24  O         -5.9640    5.8590    1.4260 O.2    19  ILE19      -0.2715
     25  N         -4.8940    4.3400    0.1060 N.am   20  ILE20      -0.1963
     26  CA        -4.3700    5.1770   -0.9560 C.3    20  ILE20       0.1727
     27  CB        -2.8480    5.4620   -0.8180 C.3    20  ILE20       0.0290
     28  CG2       -2.5210    6.1670    0.5290 C.3    20  ILE20       0.0023
     29  CG1       -1.9270    4.2500   -0.9510 C.3    20  ILE20       0.0022
     30  CD1       -0.4520    4.4090   -1.0350 C.3    20  ILE20       0.0001
     31  C         -4.8260    4.7960   -2.3980 C.2    20  ILE20       0.2617
     32  O         -4.8210    3.6210   -2.7490 O.2    20  ILE20      -0.2715
     33  N         -5.1950    5.7710   -3.1960 N.am   21  TRP21      -0.1941
     34  CA        -5.6960    5.8160   -4.5740 C.3    21  TRP21       0.1982
     35  CB        -7.1930    6.0870   -4.6010 C.3    21  TRP21       0.0394
     36  CG        -8.1480    4.9210   -4.3560 C.3    21  TRP21       0.0475
     37  CD1       -8.4270    4.3170   -3.1580 C.3    21  TRP21       0.1166
     38  NE1       -9.4680    3.4340   -3.3480 N.pl3  21  TRP21      -0.2376
     39  CE2      -10.0400    3.5420   -4.5600 C.ar   21  TRP21       0.0614
     40  CZ2      -11.2420    2.9770   -5.0990 C.ar   21  TRP21       0.0158
     41  CH2      -11.3060    3.0240   -6.5170 C.ar   21  TRP21       0.0013
     42  CZ3      -10.3640    3.7270   -7.2650 C.ar   21  TRP21      -0.0002
     43  CE3       -9.2810    4.3830   -6.7050 C.ar   21  TRP21      -0.0030
     44  CD2       -9.0950    4.3440   -5.3390 C.ar   21  TRP21      -0.0059
     45  C         -4.8510    6.8160   -5.3910 C.2    21  TRP21       0.3842
     46  O         -5.0400    8.0490   -5.1500 O.co2  21  TRP21      -0.2437
     47  OXT       -3.9720    6.3760   -6.1010 O.co2  21  TRP21      -0.2437
@<TRIPOS>BOND
     1    42    43   ar
     2    42    41   ar
     3    43    44   ar
     4    41    40   ar
     5    47    45   ar
     6    45    46   ar
     7    45    34    1
     8    44    39   ar
     9    44    36    1
    10    40    39   ar
    11    35    34    1
    12    35    36    1
    13    34    33    1
    14    39    38    1
    15    36    37    1
    16     5     4    1
    17    38    37    1
    18    33    31   am
    19     8     7    2
    20    32    31    2
    21    31    26    1
    22     2     7    1
    23     2     3    1
    24     2     1    1
    25     4     3    1
    26     4     6    1
    27     7     9   am
    28    30    29    1
    29    26    27    1
    30    26    25    1
    31    29    27    1
    32    27    28    1
    33     9    10    1
    34    16    15    2
    35    25    23   am
    36    10    15    1
    37    10    11    1
    38    15    17   am
    39    23    24    2
    40    23    18    1
    41    17    18    1
    42    13    12   ar
    43    11    12    1
    44    12    14   ar
    45    18    19    1
    46    19    20    1
    47    19    21    1
    48    21    22    1
