@<TRIPOS>MOLECULE
16219006
 85 88 0 0 0
SMALL
GASTEIGER

@<TRIPOS>ATOM
      1 O          -3.0100    3.2259    0.6104 O.2     1  PRO11      -0.2738
      2 O          -5.7658    5.5100   -1.6685 O.2     5  ASP55      -0.2735
      3 O          -7.6607    4.1497    0.6142 O.2     2  VAL22      -0.2738
      4 O          -5.6469    1.9143   -4.8620 O.2     4  TRP44      -0.2738
      5 O          -6.4738    0.1673   -1.1366 O.2     3  LEU33      -0.2738
      6 OD1        -4.2204    6.5186   -5.2425 O.co2   5  ASP55      -0.5497
      7 OD2        -5.6869    8.0905   -4.4869 O.co2   5  ASP55      -0.5497
      8 N          -3.7882    4.5853   -2.2668 N.am    1  PRO11      -0.2884
      9 N          -4.7697    4.6890    0.7204 N.am    2  VAL22      -0.3022
     10 N          -6.6480    3.5761   -3.6345 N.am    5  ASP55      -0.3021
     11 N          -6.8931    2.0446    1.0486 N.am    3  LEU33      -0.3025
     12 N          -7.9902    1.5668   -2.1505 N.am    4  TRP44      -0.3022
     13 NE1       -10.8697    4.2078   -4.2782 N.ar    4  TRP44      -0.3604
     14 CA         -3.1109    5.0303   -1.0500 C.3     1  PRO11       0.1023
     15 CB         -1.6233    4.8188   -1.3448 C.3     1  PRO11      -0.0243
     16 CG         -1.6169    3.7034   -2.3840 C.3     1  PRO11      -0.0350
     17 CD         -2.8513    4.0088   -3.2155 C.3     1  PRO11       0.0156
     18 C          -3.5924    4.2164    0.1727 C.2     1  PRO11       0.2342
     19 C          -5.0680    5.0016   -2.5587 C.2     5  ASP55       0.2369
     20 CA         -5.4995    3.9515    1.7421 C.3     2  VAL22       0.1017
     21 CA         -5.6747    4.6375   -3.9340 C.3     5  ASP55       0.1047
     22 CB         -5.7576    4.8096    3.0005 C.3     2  VAL22      -0.0197
     23 CA         -7.9732    1.4289    0.2928 C.3     3  LEU33       0.0996
     24 C          -6.7908    3.4208    1.0873 C.2     2  VAL22       0.2342
     25 CB         -6.3785    5.8427   -4.5349 C.3     5  ASP55       0.0138
     26 CA         -7.5544    1.2810   -3.5216 C.3     4  TRP44       0.1034
     27 CB         -8.5627    0.2211    1.0298 C.3     3  LEU33      -0.0236
     28 CG         -9.2568    0.5676    2.3638 C.3     3  LEU33      -0.0446
     29 C          -6.4877    2.2703   -4.0367 C.2     4  TRP44       0.2343
     30 CB         -8.7483    1.1916   -4.4869 C.3     4  TRP44       0.0013
     31 C          -7.3921    0.9808   -1.0590 C.2     3  LEU33       0.2340
     32 CG1        -6.5583    6.0904    2.7479 C.3     2  VAL22      -0.0605
     33 CG2        -6.4283    3.9845    4.1040 C.3     2  VAL22      -0.0605
     34 CG         -9.5358    2.4603   -4.6585 C.ar    4  TRP44      -0.0201
     35 CG         -5.3262    6.9176   -4.7796 C.2     5  ASP55       0.0440
     36 CD1        -9.8239   -0.7066    2.9939 C.3     3  LEU33      -0.0626
     37 CD2       -10.3746    1.6003    2.2003 C.3     3  LEU33      -0.0626
     38 CD2        -9.5304    3.3099   -5.8140 C.ar    4  TRP44       0.0029
     39 CD1       -10.4127    3.0287   -3.7526 C.ar    4  TRP44       0.0060
     40 CE2       -10.3748    4.3869   -5.5471 C.ar    4  TRP44       0.0467
     41 CE3        -8.8731    3.2681   -7.0608 C.ar    4  TRP44      -0.0523
     42 CZ2       -10.5962    5.4238   -6.4612 C.ar    4  TRP44      -0.0378
     43 CZ3        -9.0908    4.2907   -7.9912 C.ar    4  TRP44      -0.0611
     44 CH2        -9.9401    5.3529   -7.6927 C.ar    4  TRP44      -0.0598
     45 H          -5.3319    5.2720    0.0868 H       2  VAL22       0.1495
     46 H          -7.3248    3.8086   -2.9223 H       5  ASP55       0.1495
     47 H          -6.0233    1.5193    1.0906 H       3  LEU33       0.1495
     48 H          -8.5245    2.4136   -2.0005 H       4  TRP44       0.1495
     49 HE1       -11.4861    4.8589   -3.8121 H       4  TRP44       0.1653
     50 HA         -3.3173    6.0917   -0.8664 H       1  PRO11       0.0597
     51 HB1        -1.2060    5.7294   -1.7923 H       1  PRO11       0.0288
     52 HB2        -1.0248    4.5725   -0.4629 H       1  PRO11       0.0288
     53 HG1        -0.7017    3.6832   -2.9818 H       1  PRO11       0.0281
     54 HG2        -1.7259    2.7307   -1.8901 H       1  PRO11       0.0281
     55 HD1        -3.2674    3.1126   -3.6823 H       1  PRO11       0.0465
     56 HD2        -2.6319    4.7548   -3.9851 H       1  PRO11       0.0465
     57 HA         -4.8928    3.0917    2.0514 H       2  VAL22       0.0597
     58 HA         -4.9267    4.2422   -4.6224 H       5  ASP55       0.0598
     59 HB         -4.7761    5.1237    3.3820 H       2  VAL22       0.0318
     60 HA         -8.7670    2.1572    0.1012 H       3  LEU33       0.0594
     61 HB1        -6.8533    5.5834   -5.4877 H       5  ASP55       0.0348
     62 HB2        -7.1642    6.2227   -3.8700 H       5  ASP55       0.0348
     63 HA         -7.0650    0.2983   -3.5057 H       4  TRP44       0.0598
     64 HB1        -9.2810   -0.2805    0.3673 H       3  LEU33       0.0290
     65 HB2        -7.7683   -0.5120    1.2261 H       3  LEU33       0.0290
     66 HG         -8.5114    0.9796    3.0558 H       3  LEU33       0.0296
     67 HB1        -8.3877    0.8548   -5.4668 H       4  TRP44       0.0337
     68 HB2        -9.4359    0.4118   -4.1327 H       4  TRP44       0.0337
     69 HG11       -7.5944    5.8779    2.4684 H       2  VAL22       0.0233
     70 HG12       -6.5879    6.7026    3.6565 H       2  VAL22       0.0233
     71 HG13       -6.1046    6.6988    1.9598 H       2  VAL22       0.0233
     72 HG21       -7.4392    3.6743    3.8188 H       2  VAL22       0.0233
     73 HG22       -5.8460    3.0847    4.3276 H       2  VAL22       0.0233
     74 HG23       -6.5068    4.5672    5.0284 H       2  VAL22       0.0233
     75 HD11      -10.5890   -1.1584    2.3537 H       3  LEU33       0.0232
     76 HD12       -9.0336   -1.4471    3.1541 H       3  LEU33       0.0232
     77 HD13      -10.2803   -0.4901    3.9654 H       3  LEU33       0.0232
     78 HD21      -11.0904    1.2925    1.4305 H       3  LEU33       0.0232
     79 HD22      -10.9231    1.7334    3.1392 H       3  LEU33       0.0232
     80 HD23       -9.9745    2.5813    1.9240 H       3  LEU33       0.0232
     81 HD1       -10.7342    2.7129   -2.7699 H       4  TRP44       0.0810
     82 HE3        -8.1866    2.4616   -7.2989 H       4  TRP44       0.0624
     83 HZ2       -11.2373    6.2651   -6.2221 H       4  TRP44       0.0638
     84 HZ3        -8.5720    4.2649   -8.9464 H       4  TRP44       0.0618
     85 HH2       -10.0773    6.1504   -8.4188 H       4  TRP44       0.0618
@<TRIPOS>BOND
     1     1    18    2
     2     2    19    2
     3     3    24    2
     4     4    29    2
     5     5    31    2
     6     6    35   ar
     7     7    35   ar
     8     8    14    1
     9     8    17    1
    10     8    19   am
    11     9    18   am
    12     9    20    1
    13    10    21    1
    14    10    29   am
    15    11    23    1
    16    11    24   am
    17    12    26    1
    18    12    31   am
    19    13    39   ar
    20    13    40   ar
    21    14    15    1
    22    14    18    1
    23    15    16    1
    24    16    17    1
    25    19    21    1
    26    20    22    1
    27    20    24    1
    28    21    25    1
    29    22    32    1
    30    22    33    1
    31    23    27    1
    32    23    31    1
    33    25    35    1
    34    26    29    1
    35    26    30    1
    36    27    28    1
    37    28    36    1
    38    28    37    1
    39    30    34    1
    40    34    38   ar
    41    34    39   ar
    42    38    40   ar
    43    38    41   ar
    44    40    42   ar
    45    41    43   ar
    46    42    44   ar
    47    43    44   ar
    48     9    45    1
    49    10    46    1
    50    11    47    1
    51    12    48    1
    52    13    49    1
    53    14    50    1
    54    15    51    1
    55    15    52    1
    56    16    53    1
    57    16    54    1
    58    17    55    1
    59    17    56    1
    60    20    57    1
    61    21    58    1
    62    22    59    1
    63    23    60    1
    64    25    61    1
    65    25    62    1
    66    26    63    1
    67    27    64    1
    68    27    65    1
    69    28    66    1
    70    30    67    1
    71    30    68    1
    72    32    69    1
    73    32    70    1
    74    32    71    1
    75    33    72    1
    76    33    73    1
    77    33    74    1
    78    36    75    1
    79    36    76    1
    80    36    77    1
    81    37    78    1
    82    37    79    1
    83    37    80    1
    84    39    81    1
    85    41    82    1
    86    42    83    1
    87    43    84    1
    88    44    85    1
@<TRIPOS>MOLECULE
../1EDN/PCA1_17-21.pdb
 47 48 0 0 0
SMALL
GASTEIGER

@<TRIPOS>ATOM
      1  N         -4.6470   -0.3680   -1.6750 N.3    17  LEU17      -0.1231
      2  CA        -5.8920   -0.8550   -2.2480 C.3    17  LEU17       0.1693
      3  CB        -6.0770   -2.3450   -1.7480 C.3    17  LEU17       0.0284
      4  CG        -7.4170   -3.0590   -2.1890 C.3    17  LEU17       0.0019
      5  CD1       -7.4920   -3.1930   -3.7220 C.3    17  LEU17       0.0001
      6  CD2       -7.5340   -4.4610   -1.6100 C.3    17  LEU17       0.0001
      7  C         -7.0080    0.1010   -1.8270 C.2    17  LEU17       0.2592
      8  O         -7.6220    0.6590   -2.7680 O.2    17  LEU17      -0.2718
      9  N         -7.2890    0.1920   -0.5460 N.am   18  ASP18      -0.1960
     10  CA        -8.2730    1.1070    0.1120 C.3    18  ASP18       0.1840
     11  CB        -8.8290    0.4520    1.4200 C.3    18  ASP18       0.1450
     12  CG        -9.9140    1.2760    2.0640 C.2    18  ASP18       0.3671
     13  OD1      -10.8560    1.7240    1.3430 O.co2  18  ASP18      -0.2456
     14  OD2       -9.7710    1.5960    3.2830 O.co2  18  ASP18      -0.2456
     15  C         -7.6270    2.4530    0.4740 C.2    18  ASP18       0.2622
     16  O         -8.0770    3.4620   -0.0480 O.2    18  ASP18      -0.2715
     17  N         -6.6010    2.4770    1.3340 N.am   19  ILE19      -0.1963
     18  CA        -6.1660    3.6270    2.0790 C.3    19  ILE19       0.1727
     19  CB        -5.0730    3.3500    3.1520 C.3    19  ILE19       0.0290
     20  CG2       -4.5850    4.5470    3.9530 C.3    19  ILE19       0.0023
     21  CG1       -5.6210    2.1420    3.9730 C.3    19  ILE19       0.0022
     22  CD1       -6.7460    2.5740    4.8760 C.3    19  ILE19       0.0001
     23  C         -5.6740    4.7260    1.1170 C.2    19  ILE19       0.2616
     24  O         -5.9640    5.8590    1.4260 O.2    19  ILE19      -0.2715
     25  N         -4.8940    4.3400    0.1060 N.am   20  ILE20      -0.1963
     26  CA        -4.3700    5.1770   -0.9560 C.3    20  ILE20       0.1727
     27  CB        -2.8480    5.4620   -0.8180 C.3    20  ILE20       0.0290
     28  CG2       -2.5210    6.1670    0.5290 C.3    20  ILE20       0.0023
     29  CG1       -1.9270    4.2500   -0.9510 C.3    20  ILE20       0.0022
     30  CD1       -0.4520    4.4090   -1.0350 C.3    20  ILE20       0.0001
     31  C         -4.8260    4.7960   -2.3980 C.2    20  ILE20       0.2617
     32  O         -4.8210    3.6210   -2.7490 O.2    20  ILE20      -0.2715
     33  N         -5.1950    5.7710   -3.1960 N.am   21  TRP21      -0.1941
     34  CA        -5.6960    5.8160   -4.5740 C.3    21  TRP21       0.1982
     35  CB        -7.1930    6.0870   -4.6010 C.3    21  TRP21       0.0394
     36  CG        -8.1480    4.9210   -4.3560 C.3    21  TRP21       0.0475
     37  CD1       -8.4270    4.3170   -3.1580 C.3    21  TRP21       0.1166
     38  NE1       -9.4680    3.4340   -3.3480 N.pl3  21  TRP21      -0.2376
     39  CE2      -10.0400    3.5420   -4.5600 C.ar   21  TRP21       0.0614
     40  CZ2      -11.2420    2.9770   -5.0990 C.ar   21  TRP21       0.0158
     41  CH2      -11.3060    3.0240   -6.5170 C.ar   21  TRP21       0.0013
     42  CZ3      -10.3640    3.7270   -7.2650 C.ar   21  TRP21      -0.0002
     43  CE3       -9.2810    4.3830   -6.7050 C.ar   21  TRP21      -0.0030
     44  CD2       -9.0950    4.3440   -5.3390 C.ar   21  TRP21      -0.0059
     45  C         -4.8510    6.8160   -5.3910 C.2    21  TRP21       0.3842
     46  O         -5.0400    8.0490   -5.1500 O.co2  21  TRP21      -0.2437
     47  OXT       -3.9720    6.3760   -6.1010 O.co2  21  TRP21      -0.2437
@<TRIPOS>BOND
     1    42    43   ar
     2    42    41   ar
     3    43    44   ar
     4    41    40   ar
     5    47    45   ar
     6    45    46   ar
     7    45    34    1
     8    44    39   ar
     9    44    36    1
    10    40    39   ar
    11    35    34    1
    12    35    36    1
    13    34    33    1
    14    39    38    1
    15    36    37    1
    16     5     4    1
    17    38    37    1
    18    33    31   am
    19     8     7    2
    20    32    31    2
    21    31    26    1
    22     2     7    1
    23     2     3    1
    24     2     1    1
    25     4     3    1
    26     4     6    1
    27     7     9   am
    28    30    29    1
    29    26    27    1
    30    26    25    1
    31    29    27    1
    32    27    28    1
    33     9    10    1
    34    16    15    2
    35    25    23   am
    36    10    15    1
    37    10    11    1
    38    15    17   am
    39    23    24    2
    40    23    18    1
    41    17    18    1
    42    13    12   ar
    43    11    12    1
    44    12    14   ar
    45    18    19    1
    46    19    20    1
    47    19    21    1
    48    21    22    1
