@<TRIPOS>MOLECULE
*****
 67 70 0 0 0
SMALL
GASTEIGER

@<TRIPOS>ATOM
      1 C          -8.3037    1.8462    4.8999 C.ar    1  LIG11       0.0483
      2 C          -8.8772    0.8420    4.1557 C.ar    1  LIG11       0.0543
      3 C          -8.1445    0.4136    3.0735 C.ar    1  LIG11       0.0483
      4 N          -6.9409    0.9225    2.7390 N.ar    1  LIG11      -0.2022
      5 N          -7.1069    2.3988    4.6094 N.ar    1  LIG11      -0.2022
      6 C          -0.7581    6.0856   -0.4679 C.ar    1  LIG11      -0.0504
      7 C          -1.7853    6.8751    0.0557 C.ar    1  LIG11      -0.0583
      8 C          -3.1132    6.4315    0.0192 C.ar    1  LIG11      -0.0535
      9 C          -3.4529    5.1850   -0.5306 C.ar    1  LIG11      -0.0094
     10 C          -2.4131    4.4285   -1.1018 C.ar    1  LIG11      -0.0535
     11 C          -1.0871    4.8742   -1.0791 C.ar    1  LIG11      -0.0583
     12 C          -8.3901    4.3095   -6.3203 C.ar    1  LIG11      -0.0561
     13 C          -7.1922    4.7376   -5.7356 C.ar    1  LIG11      -0.0348
     14 C          -7.1526    5.0294   -4.3728 C.ar    1  LIG11       0.1086
     15 C          -8.3151    4.9442   -3.6103 C.ar    1  LIG11      -0.0348
     16 C          -9.5027    4.4887   -4.1965 C.ar    1  LIG11      -0.0561
     17 C         -10.8684    3.6375   -6.2191 C.3     1  LIG11       0.0132
     18 C          -9.5642    4.1397   -5.5586 C.ar    1  LIG11      -0.0394
     19 C         -11.4893    4.8116   -7.0037 C.3     1  LIG11      -0.0537
     20 C         -10.6117    2.4643   -7.2107 C.3     1  LIG11       0.0533
     21 C         -11.9176    3.1423   -5.1939 C.3     1  LIG11      -0.0537
     22 O         -10.0992    1.3069   -6.5551 O.3     1  LIG11      -0.3942
     23 S          -5.6232    5.5705   -3.6206 S.O2    1  LIG11       0.0735
     24 O          -5.9520    6.5930   -2.6503 O.2     1  LIG11      -0.1499
     25 O          -4.7049    5.8336   -4.7096 O.2     1  LIG11      -0.1499
     26 N          -5.0742    4.1532   -2.8493 N.pl3   1  LIG11      -0.1988
     27 C          -4.8208    4.6318   -0.4364 C.ar    1  LIG11       0.0847
     28 C          -5.5261    4.5360    0.7599 C.ar    1  LIG11       0.2276
     29 N          -6.7199    3.9238    0.8957 N.ar    1  LIG11      -0.2008
     30 C          -7.2105    3.3382   -0.1973 C.ar    1  LIG11       0.1219
     31 N          -6.6665    3.3770   -1.4162 N.ar    1  LIG11      -0.2186
     32 C          -5.5031    4.0437   -1.4952 C.ar    1  LIG11       0.1524
     33 C           0.6695    6.5402   -0.4115 C.3     1  LIG11      -0.0397
     34 O          -4.9626    5.1162    1.8806 O.3     1  LIG11      -0.4724
     35 C          -5.5780    4.8244    3.1399 C.3     1  LIG11       0.1252
     36 C          -4.8924    3.6260    3.8008 C.3     1  LIG11       0.1267
     37 O          -5.2347    2.3854    3.1794 O.3     1  LIG11      -0.4590
     38 C          -6.4760    1.9058    3.5271 C.ar    1  LIG11       0.3180
     39 BR        -10.5466    0.1037    4.5893 Br      1  LIG11      -0.0472
     40 H          -8.7943    2.2530    5.7794 H       1  LIG11       0.0843
     41 H          -8.5034   -0.3755    2.4190 H       1  LIG11       0.0843
     42 H          -1.5610    7.8351    0.5160 H       1  LIG11       0.0620
     43 H          -3.8829    7.0655    0.4555 H       1  LIG11       0.0624
     44 H          -2.6195    3.4584   -1.5506 H       1  LIG11       0.0624
     45 H          -0.3112    4.2540   -1.5224 H       1  LIG11       0.0620
     46 H          -8.3855    4.1205   -7.3919 H       1  LIG11       0.0621
     47 H          -6.3065    4.8522   -6.3579 H       1  LIG11       0.0637
     48 H          -8.3098    5.2207   -2.5583 H       1  LIG11       0.0637
     49 H         -10.3789    4.4227   -3.5563 H       1  LIG11       0.0621
     50 H         -11.7024    5.6619   -6.3448 H       1  LIG11       0.0239
     51 H         -12.4322    4.5159   -7.4783 H       1  LIG11       0.0239
     52 H         -10.8203    5.1687   -7.7951 H       1  LIG11       0.0239
     53 H          -9.9233    2.7325   -8.0181 H       1  LIG11       0.0566
     54 H         -11.5492    2.1658   -7.6950 H       1  LIG11       0.0566
     55 H         -11.5074    2.3672   -4.5364 H       1  LIG11       0.0239
     56 H         -12.7913    2.7152   -5.7013 H       1  LIG11       0.0239
     57 H         -12.2907    3.9574   -4.5638 H       1  LIG11       0.0239
     58 H          -9.2907    1.5745   -6.0836 H       1  LIG11       0.2094
     59 H          -5.4381    3.3441   -3.3504 H       1  LIG11       0.1753
     60 H          -8.1424    2.7952   -0.0864 H       1  LIG11       0.1049
     61 H           0.8194    7.2740    0.3878 H       1  LIG11       0.0278
     62 H           0.9608    6.9925   -1.3638 H       1  LIG11       0.0278
     63 H           1.3327    5.6944   -0.1991 H       1  LIG11       0.0278
     64 H          -6.6662    4.7222    3.0733 H       1  LIG11       0.0731
     65 H          -5.3946    5.7055    3.7656 H       1  LIG11       0.0731
     66 H          -5.0784    3.6026    4.8815 H       1  LIG11       0.0732
     67 H          -3.8075    3.7311    3.6823 H       1  LIG11       0.0732
@<TRIPOS>BOND
     1     1     2   ar
     2     2     3   ar
     3     2    39    1
     4     3     4   ar
     5     4    38   ar
     6     5     1   ar
     7     6     7   ar
     8     6    33    1
     9     7     8   ar
    10     8     9   ar
    11     9    10   ar
    12    10    11   ar
    13    11     6   ar
    14    12    13   ar
    15    13    14   ar
    16    14    15   ar
    17    15    16   ar
    18    16    18   ar
    19    17    18    1
    20    17    21    1
    21    17    20    1
    22    17    19    1
    23    18    12   ar
    24    20    22    1
    25    23    26    1
    26    23    25    2
    27    23    24    2
    28    23    14    1
    29    26    32    1
    30    27    28   ar
    31    27     9    1
    32    28    29   ar
    33    29    30   ar
    34    30    31   ar
    35    31    32   ar
    36    32    27   ar
    37    34    35    1
    38    34    28    1
    39    35    36    1
    40    36    37    1
    41    37    38    1
    42    38     5   ar
    43     1    40    1
    44     3    41    1
    45     7    42    1
    46     8    43    1
    47    10    44    1
    48    11    45    1
    49    12    46    1
    50    13    47    1
    51    15    48    1
    52    16    49    1
    53    19    50    1
    54    19    51    1
    55    19    52    1
    56    20    53    1
    57    20    54    1
    58    21    55    1
    59    21    56    1
    60    21    57    1
    61    22    58    1
    62    26    59    1
    63    30    60    1
    64    33    61    1
    65    33    62    1
    66    33    63    1
    67    35    64    1
    68    35    65    1
    69    36    66    1
    70    36    67    1
@<TRIPOS>MOLECULE
../1EDN/PCA1_17-21.pdb
 47 48 0 0 0
SMALL
GASTEIGER

@<TRIPOS>ATOM
      1  N         -4.6470   -0.3680   -1.6750 N.3    17  LEU17      -0.1231
      2  CA        -5.8920   -0.8550   -2.2480 C.3    17  LEU17       0.1693
      3  CB        -6.0770   -2.3450   -1.7480 C.3    17  LEU17       0.0284
      4  CG        -7.4170   -3.0590   -2.1890 C.3    17  LEU17       0.0019
      5  CD1       -7.4920   -3.1930   -3.7220 C.3    17  LEU17       0.0001
      6  CD2       -7.5340   -4.4610   -1.6100 C.3    17  LEU17       0.0001
      7  C         -7.0080    0.1010   -1.8270 C.2    17  LEU17       0.2592
      8  O         -7.6220    0.6590   -2.7680 O.2    17  LEU17      -0.2718
      9  N         -7.2890    0.1920   -0.5460 N.am   18  ASP18      -0.1960
     10  CA        -8.2730    1.1070    0.1120 C.3    18  ASP18       0.1840
     11  CB        -8.8290    0.4520    1.4200 C.3    18  ASP18       0.1450
     12  CG        -9.9140    1.2760    2.0640 C.2    18  ASP18       0.3671
     13  OD1      -10.8560    1.7240    1.3430 O.co2  18  ASP18      -0.2456
     14  OD2       -9.7710    1.5960    3.2830 O.co2  18  ASP18      -0.2456
     15  C         -7.6270    2.4530    0.4740 C.2    18  ASP18       0.2622
     16  O         -8.0770    3.4620   -0.0480 O.2    18  ASP18      -0.2715
     17  N         -6.6010    2.4770    1.3340 N.am   19  ILE19      -0.1963
     18  CA        -6.1660    3.6270    2.0790 C.3    19  ILE19       0.1727
     19  CB        -5.0730    3.3500    3.1520 C.3    19  ILE19       0.0290
     20  CG2       -4.5850    4.5470    3.9530 C.3    19  ILE19       0.0023
     21  CG1       -5.6210    2.1420    3.9730 C.3    19  ILE19       0.0022
     22  CD1       -6.7460    2.5740    4.8760 C.3    19  ILE19       0.0001
     23  C         -5.6740    4.7260    1.1170 C.2    19  ILE19       0.2616
     24  O         -5.9640    5.8590    1.4260 O.2    19  ILE19      -0.2715
     25  N         -4.8940    4.3400    0.1060 N.am   20  ILE20      -0.1963
     26  CA        -4.3700    5.1770   -0.9560 C.3    20  ILE20       0.1727
     27  CB        -2.8480    5.4620   -0.8180 C.3    20  ILE20       0.0290
     28  CG2       -2.5210    6.1670    0.5290 C.3    20  ILE20       0.0023
     29  CG1       -1.9270    4.2500   -0.9510 C.3    20  ILE20       0.0022
     30  CD1       -0.4520    4.4090   -1.0350 C.3    20  ILE20       0.0001
     31  C         -4.8260    4.7960   -2.3980 C.2    20  ILE20       0.2617
     32  O         -4.8210    3.6210   -2.7490 O.2    20  ILE20      -0.2715
     33  N         -5.1950    5.7710   -3.1960 N.am   21  TRP21      -0.1941
     34  CA        -5.6960    5.8160   -4.5740 C.3    21  TRP21       0.1982
     35  CB        -7.1930    6.0870   -4.6010 C.3    21  TRP21       0.0394
     36  CG        -8.1480    4.9210   -4.3560 C.3    21  TRP21       0.0475
     37  CD1       -8.4270    4.3170   -3.1580 C.3    21  TRP21       0.1166
     38  NE1       -9.4680    3.4340   -3.3480 N.pl3  21  TRP21      -0.2376
     39  CE2      -10.0400    3.5420   -4.5600 C.ar   21  TRP21       0.0614
     40  CZ2      -11.2420    2.9770   -5.0990 C.ar   21  TRP21       0.0158
     41  CH2      -11.3060    3.0240   -6.5170 C.ar   21  TRP21       0.0013
     42  CZ3      -10.3640    3.7270   -7.2650 C.ar   21  TRP21      -0.0002
     43  CE3       -9.2810    4.3830   -6.7050 C.ar   21  TRP21      -0.0030
     44  CD2       -9.0950    4.3440   -5.3390 C.ar   21  TRP21      -0.0059
     45  C         -4.8510    6.8160   -5.3910 C.2    21  TRP21       0.3842
     46  O         -5.0400    8.0490   -5.1500 O.co2  21  TRP21      -0.2437
     47  OXT       -3.9720    6.3760   -6.1010 O.co2  21  TRP21      -0.2437
@<TRIPOS>BOND
     1    42    43   ar
     2    42    41   ar
     3    43    44   ar
     4    41    40   ar
     5    47    45   ar
     6    45    46   ar
     7    45    34    1
     8    44    39   ar
     9    44    36    1
    10    40    39   ar
    11    35    34    1
    12    35    36    1
    13    34    33    1
    14    39    38    1
    15    36    37    1
    16     5     4    1
    17    38    37    1
    18    33    31   am
    19     8     7    2
    20    32    31    2
    21    31    26    1
    22     2     7    1
    23     2     3    1
    24     2     1    1
    25     4     3    1
    26     4     6    1
    27     7     9   am
    28    30    29    1
    29    26    27    1
    30    26    25    1
    31    29    27    1
    32    27    28    1
    33     9    10    1
    34    16    15    2
    35    25    23   am
    36    10    15    1
    37    10    11    1
    38    15    17   am
    39    23    24    2
    40    23    18    1
    41    17    18    1
    42    13    12   ar
    43    11    12    1
    44    12    14   ar
    45    18    19    1
    46    19    20    1
    47    19    21    1
    48    21    22    1
