@<TRIPOS>MOLECULE
9912992
 55 58 0 0 0
SMALL
GASTEIGER

@<TRIPOS>ATOM
      1 S          -6.7149    4.3694    0.0493 S.O2    1  LIG11       0.0908
      2 O          -4.1657    5.8151   -2.2831 O.3     1  LIG11      -0.4435
      3 O          -4.8871    7.0051   -4.5534 O.3     1  LIG11      -0.4771
      4 O          -5.6849    4.6942    1.0122 O.2     1  LIG11      -0.1484
      5 O          -7.6983    5.3440   -0.3766 O.2     1  LIG11      -0.1484
      6 O          -2.8823    6.5229    0.1841 O.3     1  LIG11      -0.4914
      7 N          -5.9840    3.6295   -1.2991 N.pl3   1  LIG11      -0.1950
      8 N          -7.2289    3.9444   -3.1769 N.ar    1  LIG11      -0.2073
      9 N          -6.7843    5.6340   -4.7859 N.ar    1  LIG11      -0.1899
     10 N          -7.6179    1.8724   -0.0851 N.ar    1  LIG11      -0.2351
     11 N         -11.1081    3.5422   -6.4158 N.ar    1  LIG11      -0.2632
     12 C          -6.1363    4.3478   -2.5083 C.ar    1  LIG11       0.1882
     13 C          -5.2877    5.3573   -2.9135 C.ar    1  LIG11       0.2307
     14 C          -7.6165    2.9721    0.7270 C.ar    1  LIG11       0.1969
     15 C          -5.6875    5.9785   -4.0797 C.ar    1  LIG11       0.2638
     16 C          -7.5261    4.6278   -4.2938 C.ar    1  LIG11       0.1659
     17 C          -8.1243    3.0263    2.0123 C.ar    1  LIG11      -0.0160
     18 C          -8.7516    4.2544   -5.0227 C.ar    1  LIG11       0.0222
     19 C          -3.3075    4.9357   -1.6647 C.ar    1  LIG11       0.1702
     20 C          -8.7401    0.7077    1.7212 C.ar    1  LIG11      -0.0322
     21 C          -8.7021    1.8634    2.5116 C.ar    1  LIG11      -0.0541
     22 C          -8.1858    0.7676    0.4431 C.ar    1  LIG11       0.0327
     23 C          -2.7206    5.3182   -0.4496 C.ar    1  LIG11       0.1621
     24 C          -2.9797    3.6936   -2.2287 C.ar    1  LIG11      -0.0157
     25 C          -9.3124   -0.5760    2.2366 C.3     1  LIG11      -0.0383
     26 C          -9.1070    4.8750   -6.2302 C.ar    1  LIG11      -0.0329
     27 C          -9.6228    3.2677   -4.5359 C.ar    1  LIG11      -0.0329
     28 C          -1.9336    4.3998    0.2525 C.ar    1  LIG11      -0.0163
     29 C          -2.1708    2.7943   -1.5311 C.ar    1  LIG11      -0.0581
     30 C          -1.6641    3.1398   -0.2811 C.ar    1  LIG11      -0.0581
     31 C         -10.2719    4.4928   -6.8774 C.ar    1  LIG11       0.0282
     32 C         -10.7664    2.9527   -5.2530 C.ar    1  LIG11       0.0282
     33 C          -5.3820    7.6187   -5.7385 C.3     1  LIG11       0.0805
     34 C          -2.8828    7.6655   -0.6654 C.3     1  LIG11       0.0790
     35 H          -6.4136    2.7012   -1.3876 H       1  LIG11       0.1754
     36 H          -8.0546    3.9287    2.6096 H       1  LIG11       0.0653
     37 H          -9.1072    1.8571    3.5211 H       1  LIG11       0.0622
     38 H          -8.1763   -0.1071   -0.2037 H       1  LIG11       0.0833
     39 H          -3.3676    3.4020   -3.2003 H       1  LIG11       0.0655
     40 H          -9.8376   -0.4273    3.1856 H       1  LIG11       0.0278
     41 H          -8.5120   -1.3048    2.4003 H       1  LIG11       0.0278
     42 H         -10.0312   -0.9873    1.5204 H       1  LIG11       0.0278
     43 H          -8.4871    5.6524   -6.6666 H       1  LIG11       0.0640
     44 H          -9.4214    2.7504   -3.6021 H       1  LIG11       0.0640
     45 H          -1.5269    4.6753    1.2223 H       1  LIG11       0.0655
     46 H          -1.9484    1.8193   -1.9563 H       1  LIG11       0.0619
     47 H          -1.0532    2.4355    0.2767 H       1  LIG11       0.0619
     48 H         -10.5698    4.9584   -7.8125 H       1  LIG11       0.0830
     49 H         -11.4582    2.1951   -4.8961 H       1  LIG11       0.0830
     50 H          -4.6842    8.4135   -6.0191 H       1  LIG11       0.0660
     51 H          -6.3612    8.0793   -5.5675 H       1  LIG11       0.0660
     52 H          -5.4227    6.9043   -6.5682 H       1  LIG11       0.0660
     53 H          -2.5214    8.5155   -0.0781 H       1  LIG11       0.0660
     54 H          -3.9013    7.9002   -0.9877 H       1  LIG11       0.0660
     55 H          -2.2123    7.5515   -1.5248 H       1  LIG11       0.0660
@<TRIPOS>BOND
     1     1     4    2
     2     1     5    2
     3     1     7    1
     4     1    14    1
     5     2    13    1
     6     2    19    1
     7     3    15    1
     8     3    33    1
     9     6    23    1
    10     6    34    1
    11     7    12    1
    12     8    12   ar
    13     8    16   ar
    14     9    15   ar
    15     9    16   ar
    16    10    14   ar
    17    10    22   ar
    18    11    31   ar
    19    11    32   ar
    20    12    13   ar
    21    13    15   ar
    22    14    17   ar
    23    16    18    1
    24    17    21   ar
    25    18    26   ar
    26    18    27   ar
    27    19    23   ar
    28    19    24   ar
    29    20    21   ar
    30    20    22   ar
    31    20    25    1
    32    23    28   ar
    33    24    29   ar
    34    26    31   ar
    35    27    32   ar
    36    28    30   ar
    37    29    30   ar
    38     7    35    1
    39    17    36    1
    40    21    37    1
    41    22    38    1
    42    24    39    1
    43    25    40    1
    44    25    41    1
    45    25    42    1
    46    26    43    1
    47    27    44    1
    48    28    45    1
    49    29    46    1
    50    30    47    1
    51    31    48    1
    52    32    49    1
    53    33    50    1
    54    33    51    1
    55    33    52    1
    56    34    53    1
    57    34    54    1
    58    34    55    1
@<TRIPOS>MOLECULE
../1EDN/PCA1_17-21.pdb
 47 48 0 0 0
SMALL
GASTEIGER

@<TRIPOS>ATOM
      1  N         -4.6470   -0.3680   -1.6750 N.3    17  LEU17      -0.1231
      2  CA        -5.8920   -0.8550   -2.2480 C.3    17  LEU17       0.1693
      3  CB        -6.0770   -2.3450   -1.7480 C.3    17  LEU17       0.0284
      4  CG        -7.4170   -3.0590   -2.1890 C.3    17  LEU17       0.0019
      5  CD1       -7.4920   -3.1930   -3.7220 C.3    17  LEU17       0.0001
      6  CD2       -7.5340   -4.4610   -1.6100 C.3    17  LEU17       0.0001
      7  C         -7.0080    0.1010   -1.8270 C.2    17  LEU17       0.2592
      8  O         -7.6220    0.6590   -2.7680 O.2    17  LEU17      -0.2718
      9  N         -7.2890    0.1920   -0.5460 N.am   18  ASP18      -0.1960
     10  CA        -8.2730    1.1070    0.1120 C.3    18  ASP18       0.1840
     11  CB        -8.8290    0.4520    1.4200 C.3    18  ASP18       0.1450
     12  CG        -9.9140    1.2760    2.0640 C.2    18  ASP18       0.3671
     13  OD1      -10.8560    1.7240    1.3430 O.co2  18  ASP18      -0.2456
     14  OD2       -9.7710    1.5960    3.2830 O.co2  18  ASP18      -0.2456
     15  C         -7.6270    2.4530    0.4740 C.2    18  ASP18       0.2622
     16  O         -8.0770    3.4620   -0.0480 O.2    18  ASP18      -0.2715
     17  N         -6.6010    2.4770    1.3340 N.am   19  ILE19      -0.1963
     18  CA        -6.1660    3.6270    2.0790 C.3    19  ILE19       0.1727
     19  CB        -5.0730    3.3500    3.1520 C.3    19  ILE19       0.0290
     20  CG2       -4.5850    4.5470    3.9530 C.3    19  ILE19       0.0023
     21  CG1       -5.6210    2.1420    3.9730 C.3    19  ILE19       0.0022
     22  CD1       -6.7460    2.5740    4.8760 C.3    19  ILE19       0.0001
     23  C         -5.6740    4.7260    1.1170 C.2    19  ILE19       0.2616
     24  O         -5.9640    5.8590    1.4260 O.2    19  ILE19      -0.2715
     25  N         -4.8940    4.3400    0.1060 N.am   20  ILE20      -0.1963
     26  CA        -4.3700    5.1770   -0.9560 C.3    20  ILE20       0.1727
     27  CB        -2.8480    5.4620   -0.8180 C.3    20  ILE20       0.0290
     28  CG2       -2.5210    6.1670    0.5290 C.3    20  ILE20       0.0023
     29  CG1       -1.9270    4.2500   -0.9510 C.3    20  ILE20       0.0022
     30  CD1       -0.4520    4.4090   -1.0350 C.3    20  ILE20       0.0001
     31  C         -4.8260    4.7960   -2.3980 C.2    20  ILE20       0.2617
     32  O         -4.8210    3.6210   -2.7490 O.2    20  ILE20      -0.2715
     33  N         -5.1950    5.7710   -3.1960 N.am   21  TRP21      -0.1941
     34  CA        -5.6960    5.8160   -4.5740 C.3    21  TRP21       0.1982
     35  CB        -7.1930    6.0870   -4.6010 C.3    21  TRP21       0.0394
     36  CG        -8.1480    4.9210   -4.3560 C.3    21  TRP21       0.0475
     37  CD1       -8.4270    4.3170   -3.1580 C.3    21  TRP21       0.1166
     38  NE1       -9.4680    3.4340   -3.3480 N.pl3  21  TRP21      -0.2376
     39  CE2      -10.0400    3.5420   -4.5600 C.ar   21  TRP21       0.0614
     40  CZ2      -11.2420    2.9770   -5.0990 C.ar   21  TRP21       0.0158
     41  CH2      -11.3060    3.0240   -6.5170 C.ar   21  TRP21       0.0013
     42  CZ3      -10.3640    3.7270   -7.2650 C.ar   21  TRP21      -0.0002
     43  CE3       -9.2810    4.3830   -6.7050 C.ar   21  TRP21      -0.0030
     44  CD2       -9.0950    4.3440   -5.3390 C.ar   21  TRP21      -0.0059
     45  C         -4.8510    6.8160   -5.3910 C.2    21  TRP21       0.3842
     46  O         -5.0400    8.0490   -5.1500 O.co2  21  TRP21      -0.2437
     47  OXT       -3.9720    6.3760   -6.1010 O.co2  21  TRP21      -0.2437
@<TRIPOS>BOND
     1    42    43   ar
     2    42    41   ar
     3    43    44   ar
     4    41    40   ar
     5    47    45   ar
     6    45    46   ar
     7    45    34    1
     8    44    39   ar
     9    44    36    1
    10    40    39   ar
    11    35    34    1
    12    35    36    1
    13    34    33    1
    14    39    38    1
    15    36    37    1
    16     5     4    1
    17    38    37    1
    18    33    31   am
    19     8     7    2
    20    32    31    2
    21    31    26    1
    22     2     7    1
    23     2     3    1
    24     2     1    1
    25     4     3    1
    26     4     6    1
    27     7     9   am
    28    30    29    1
    29    26    27    1
    30    26    25    1
    31    29    27    1
    32    27    28    1
    33     9    10    1
    34    16    15    2
    35    25    23   am
    36    10    15    1
    37    10    11    1
    38    15    17   am
    39    23    24    2
    40    23    18    1
    41    17    18    1
    42    13    12   ar
    43    11    12    1
    44    12    14   ar
    45    18    19    1
    46    19    20    1
    47    19    21    1
    48    21    22    1
