@<TRIPOS>MOLECULE
2-[[2-[2-butyl-4-[(Z)-2-carboxy-3-(6-methoxy-1,3-benzodioxol-5-yl)prop-1-enyl]pyrazol-3-yl]-5-methoxyphenoxy]methyl]benzoic acid
 77 81 0 0 0
SMALL
GASTEIGER

@<TRIPOS>ATOM
      1 O          -7.5270    3.5404   -2.6881 O.3     1  LIG11      -0.4866
      2 O          -5.4484   -0.3279    5.1110 O.3     1  LIG11      -0.4526
      3 O          -4.6588    1.5234    6.4425 O.3     1  LIG11      -0.4525
      4 O          -5.8288    4.6999    2.9485 O.3     1  LIG11      -0.4947
      5 O         -11.3440    2.9257   -5.3940 O.3     1  LIG11      -0.4950
      6 O          -9.6243    3.0646    2.0307 O.co2   1  LIG11      -0.5449
      7 O          -9.7885    0.7915    1.9081 O.co2   1  LIG11      -0.5449
      8 O          -4.7913    5.0741   -3.6154 O.co2   1  LIG11      -0.5446
      9 O          -4.2020    6.5690   -5.1937 O.co2   1  LIG11      -0.5446
     10 N          -6.2342   -0.4720   -2.8004 N.ar    1  LIG11      -0.2630
     11 N          -5.3322   -0.6787   -1.8064 N.ar    1  LIG11      -0.1785
     12 C          -7.0373    0.6477   -2.5938 C.ar    1  LIG11       0.0795
     13 C          -6.4112   -1.5821   -3.7228 C.3     1  LIG11       0.0422
     14 C          -7.7599   -2.3256   -3.6316 C.3     1  LIG11      -0.0336
     15 C          -7.0083    0.7193   -1.1917 C.ar    1  LIG11       0.0207
     16 C          -7.9258    1.3559   -3.5634 C.ar    1  LIG11       0.0425
     17 C          -8.1020   -2.9257   -2.2664 C.3     1  LIG11      -0.0542
     18 C          -5.8573    0.0117   -0.7948 C.ar    1  LIG11       0.0571
     19 C          -8.0494    1.1474   -0.3092 C.2     1  LIG11      -0.0459
     20 C          -6.7827    2.6474    1.3243 C.3     1  LIG11       0.0029
     21 C          -8.3727    2.6698   -3.3242 C.ar    1  LIG11       0.1336
     22 C          -7.9598    1.8513    0.8383 C.2     1  LIG11      -0.0200
     23 C          -6.2657    2.3774    2.7349 C.ar    1  LIG11       0.0023
     24 C          -8.4416    0.7470   -4.7137 C.ar    1  LIG11      -0.0456
     25 C          -9.5312   -3.4611   -2.2645 C.3     1  LIG11      -0.0652
     26 C          -9.6097    3.0631   -3.8332 C.ar    1  LIG11       0.0224
     27 C          -5.7583    3.4555    3.5206 C.ar    1  LIG11       0.1273
     28 C          -6.1821    1.0631    3.2363 C.ar    1  LIG11      -0.0092
     29 C          -9.5566    1.2556   -5.3878 C.ar    1  LIG11      -0.0191
     30 C          -5.6272    0.8708    4.4870 C.ar    1  LIG11       0.1667
     31 C         -10.1922    2.3836   -4.8958 C.ar    1  LIG11       0.1236
     32 C          -5.1709    1.9222    5.2445 C.ar    1  LIG11       0.1697
     33 C          -5.2277    3.2231    4.7970 C.ar    1  LIG11       0.0258
     34 C          -9.2456    1.9127    1.6733 C.2     1  LIG11       0.0680
     35 C          -7.6259    4.9715   -2.9170 C.3     1  LIG11       0.1153
     36 C          -4.8410    0.0987    6.3443 C.3     1  LIG11       0.2332
     37 C          -7.6386    5.5569   -4.3465 C.ar    1  LIG11      -0.0016
     38 C          -6.4863    5.8888   -5.1052 C.ar    1  LIG11       0.0037
     39 C          -8.8966    5.8743   -4.9179 C.ar    1  LIG11      -0.0547
     40 C          -5.1047    5.7549    3.5572 C.3     1  LIG11       0.0788
     41 C          -6.6618    6.3931   -6.4229 C.ar    1  LIG11      -0.0525
     42 C          -9.0436    6.3587   -6.2189 C.ar    1  LIG11      -0.0614
     43 C         -11.6008    2.6455   -6.7630 C.3     1  LIG11       0.0788
     44 C          -7.9193    6.6040   -6.9838 C.ar    1  LIG11      -0.0611
     45 C          -5.0535    5.8281   -4.5902 C.2     1  LIG11       0.0720
     46 H          -6.2253   -1.1998   -4.7307 H       1  LIG11       0.0509
     47 H          -5.6090   -2.3060   -3.5241 H       1  LIG11       0.0509
     48 H          -8.5887   -1.6720   -3.9058 H       1  LIG11       0.0283
     49 H          -7.7550   -3.1288   -4.3796 H       1  LIG11       0.0283
     50 H          -7.4044   -3.7341   -2.0261 H       1  LIG11       0.0263
     51 H          -8.0220   -2.1720   -1.4777 H       1  LIG11       0.0263
     52 H          -5.4541   -0.1179    0.2004 H       1  LIG11       0.0854
     53 H          -9.0310    0.7392   -0.5548 H       1  LIG11       0.0628
     54 H          -5.9260    2.5327    0.6502 H       1  LIG11       0.0363
     55 H          -7.0825    3.6990    1.2375 H       1  LIG11       0.0363
     56 H          -8.0086   -0.1491   -5.1279 H       1  LIG11       0.0626
     57 H          -9.6685   -4.2271   -3.0345 H       1  LIG11       0.0230
     58 H          -9.7762   -3.9020   -1.2937 H       1  LIG11       0.0230
     59 H         -10.2499   -2.6559   -2.4567 H       1  LIG11       0.0230
     60 H         -10.0993    3.9410   -3.4350 H       1  LIG11       0.0691
     61 H          -6.5481    0.2199    2.6597 H       1  LIG11       0.0659
     62 H          -9.9283    0.7135   -6.2483 H       1  LIG11       0.0654
     63 H          -4.8634    4.0167    5.4321 H       1  LIG11       0.0692
     64 H          -8.5215    5.3229   -2.3855 H       1  LIG11       0.0748
     65 H          -6.8085    5.4373   -2.3550 H       1  LIG11       0.0748
     66 H          -5.4678   -0.2322    7.1806 H       1  LIG11       0.1166
     67 H          -3.8593   -0.3819    6.4366 H       1  LIG11       0.1166
     68 H          -9.8048    5.7539   -4.3336 H       1  LIG11       0.0622
     69 H          -5.1787    6.6304    2.9049 H       1  LIG11       0.0660
     70 H          -5.5391    6.0247    4.5248 H       1  LIG11       0.0660
     71 H          -4.0433    5.5033    3.6563 H       1  LIG11       0.0660
     72 H          -5.7768    6.6452   -7.0064 H       1  LIG11       0.0624
     73 H         -10.0339    6.5473   -6.6179 H       1  LIG11       0.0618
     74 H         -12.4165    3.2970   -7.0904 H       1  LIG11       0.0660
     75 H         -10.7290    2.8634   -7.3907 H       1  LIG11       0.0660
     76 H         -11.9301    1.6094   -6.8944 H       1  LIG11       0.0660
     77 H          -8.0049    6.9898   -7.9933 H       1  LIG11       0.0618
@<TRIPOS>BOND
     1     1    35    1
     2     1    21    1
     3     2    36    1
     4     2    30    1
     5     3    32    1
     6     3    36    1
     7     4    27    1
     8     4    40    1
     9     5    31    1
    10     5    43    1
    11     6    34   ar
    12     7    34   ar
    13     8    45   ar
    14     9    45   ar
    15    10    11   ar
    16    10    12   ar
    17    10    13    1
    18    11    18   ar
    19    12    15   ar
    20    13    14    1
    21    14    17    1
    22    15    18   ar
    23    15    19    1
    24    16    24   ar
    25    16    21   ar
    26    16    12    1
    27    17    25    1
    28    19    22    2
    29    20    22    1
    30    20    23    1
    31    21    26   ar
    32    22    34    1
    33    23    28   ar
    34    23    27   ar
    35    24    29   ar
    36    26    31   ar
    37    27    33   ar
    38    28    30   ar
    39    29    31   ar
    40    30    32   ar
    41    32    33   ar
    42    35    37    1
    43    37    39   ar
    44    37    38   ar
    45    38    41   ar
    46    38    45    1
    47    39    42   ar
    48    41    44   ar
    49    42    44   ar
    50    13    46    1
    51    13    47    1
    52    14    48    1
    53    14    49    1
    54    17    50    1
    55    17    51    1
    56    18    52    1
    57    19    53    1
    58    20    54    1
    59    20    55    1
    60    24    56    1
    61    25    57    1
    62    25    58    1
    63    25    59    1
    64    26    60    1
    65    28    61    1
    66    29    62    1
    67    33    63    1
    68    35    64    1
    69    35    65    1
    70    36    66    1
    71    36    67    1
    72    39    68    1
    73    40    69    1
    74    40    70    1
    75    40    71    1
    76    41    72    1
    77    42    73    1
    78    43    74    1
    79    43    75    1
    80    43    76    1
    81    44    77    1
@<TRIPOS>MOLECULE
../1EDN/PCA1_17-21.pdb
 47 48 0 0 0
SMALL
GASTEIGER

@<TRIPOS>ATOM
      1  N         -4.6470   -0.3680   -1.6750 N.3    17  LEU17      -0.1231
      2  CA        -5.8920   -0.8550   -2.2480 C.3    17  LEU17       0.1693
      3  CB        -6.0770   -2.3450   -1.7480 C.3    17  LEU17       0.0284
      4  CG        -7.4170   -3.0590   -2.1890 C.3    17  LEU17       0.0019
      5  CD1       -7.4920   -3.1930   -3.7220 C.3    17  LEU17       0.0001
      6  CD2       -7.5340   -4.4610   -1.6100 C.3    17  LEU17       0.0001
      7  C         -7.0080    0.1010   -1.8270 C.2    17  LEU17       0.2592
      8  O         -7.6220    0.6590   -2.7680 O.2    17  LEU17      -0.2718
      9  N         -7.2890    0.1920   -0.5460 N.am   18  ASP18      -0.1960
     10  CA        -8.2730    1.1070    0.1120 C.3    18  ASP18       0.1840
     11  CB        -8.8290    0.4520    1.4200 C.3    18  ASP18       0.1450
     12  CG        -9.9140    1.2760    2.0640 C.2    18  ASP18       0.3671
     13  OD1      -10.8560    1.7240    1.3430 O.co2  18  ASP18      -0.2456
     14  OD2       -9.7710    1.5960    3.2830 O.co2  18  ASP18      -0.2456
     15  C         -7.6270    2.4530    0.4740 C.2    18  ASP18       0.2622
     16  O         -8.0770    3.4620   -0.0480 O.2    18  ASP18      -0.2715
     17  N         -6.6010    2.4770    1.3340 N.am   19  ILE19      -0.1963
     18  CA        -6.1660    3.6270    2.0790 C.3    19  ILE19       0.1727
     19  CB        -5.0730    3.3500    3.1520 C.3    19  ILE19       0.0290
     20  CG2       -4.5850    4.5470    3.9530 C.3    19  ILE19       0.0023
     21  CG1       -5.6210    2.1420    3.9730 C.3    19  ILE19       0.0022
     22  CD1       -6.7460    2.5740    4.8760 C.3    19  ILE19       0.0001
     23  C         -5.6740    4.7260    1.1170 C.2    19  ILE19       0.2616
     24  O         -5.9640    5.8590    1.4260 O.2    19  ILE19      -0.2715
     25  N         -4.8940    4.3400    0.1060 N.am   20  ILE20      -0.1963
     26  CA        -4.3700    5.1770   -0.9560 C.3    20  ILE20       0.1727
     27  CB        -2.8480    5.4620   -0.8180 C.3    20  ILE20       0.0290
     28  CG2       -2.5210    6.1670    0.5290 C.3    20  ILE20       0.0023
     29  CG1       -1.9270    4.2500   -0.9510 C.3    20  ILE20       0.0022
     30  CD1       -0.4520    4.4090   -1.0350 C.3    20  ILE20       0.0001
     31  C         -4.8260    4.7960   -2.3980 C.2    20  ILE20       0.2617
     32  O         -4.8210    3.6210   -2.7490 O.2    20  ILE20      -0.2715
     33  N         -5.1950    5.7710   -3.1960 N.am   21  TRP21      -0.1941
     34  CA        -5.6960    5.8160   -4.5740 C.3    21  TRP21       0.1982
     35  CB        -7.1930    6.0870   -4.6010 C.3    21  TRP21       0.0394
     36  CG        -8.1480    4.9210   -4.3560 C.3    21  TRP21       0.0475
     37  CD1       -8.4270    4.3170   -3.1580 C.3    21  TRP21       0.1166
     38  NE1       -9.4680    3.4340   -3.3480 N.pl3  21  TRP21      -0.2376
     39  CE2      -10.0400    3.5420   -4.5600 C.ar   21  TRP21       0.0614
     40  CZ2      -11.2420    2.9770   -5.0990 C.ar   21  TRP21       0.0158
     41  CH2      -11.3060    3.0240   -6.5170 C.ar   21  TRP21       0.0013
     42  CZ3      -10.3640    3.7270   -7.2650 C.ar   21  TRP21      -0.0002
     43  CE3       -9.2810    4.3830   -6.7050 C.ar   21  TRP21      -0.0030
     44  CD2       -9.0950    4.3440   -5.3390 C.ar   21  TRP21      -0.0059
     45  C         -4.8510    6.8160   -5.3910 C.2    21  TRP21       0.3842
     46  O         -5.0400    8.0490   -5.1500 O.co2  21  TRP21      -0.2437
     47  OXT       -3.9720    6.3760   -6.1010 O.co2  21  TRP21      -0.2437
@<TRIPOS>BOND
     1    42    43   ar
     2    42    41   ar
     3    43    44   ar
     4    41    40   ar
     5    47    45   ar
     6    45    46   ar
     7    45    34    1
     8    44    39   ar
     9    44    36    1
    10    40    39   ar
    11    35    34    1
    12    35    36    1
    13    34    33    1
    14    39    38    1
    15    36    37    1
    16     5     4    1
    17    38    37    1
    18    33    31   am
    19     8     7    2
    20    32    31    2
    21    31    26    1
    22     2     7    1
    23     2     3    1
    24     2     1    1
    25     4     3    1
    26     4     6    1
    27     7     9   am
    28    30    29    1
    29    26    27    1
    30    26    25    1
    31    29    27    1
    32    27    28    1
    33     9    10    1
    34    16    15    2
    35    25    23   am
    36    10    15    1
    37    10    11    1
    38    15    17   am
    39    23    24    2
    40    23    18    1
    41    17    18    1
    42    13    12   ar
    43    11    12    1
    44    12    14   ar
    45    18    19    1
    46    19    20    1
    47    19    21    1
    48    21    22    1
