@<TRIPOS>MOLECULE
9957262
 56 59 0 0 0
SMALL
GASTEIGER

@<TRIPOS>ATOM
      1 S          -4.3933    4.8709   -0.2458 S.O2    1  LIG11       0.0668
      2 O          -6.3889    2.3310    1.6661 O.3     1  LIG11      -0.4435
      3 O          -7.9848    0.5830    0.4394 O.3     1  LIG11      -0.4771
      4 O          -4.0627    3.4844   -0.5070 O.2     1  LIG11      -0.1505
      5 O          -3.6225    5.6432    0.7071 O.2     1  LIG11      -0.1505
      6 O          -3.9267    2.4732    3.2792 O.3     1  LIG11      -0.4914
      7 N          -5.9981    4.9700    0.2853 N.pl3   1  LIG11      -0.1968
      8 N          -7.4606    4.2532   -1.3042 N.ar    1  LIG11      -0.2044
      9 N          -8.4447    2.0844   -1.3092 N.ar    1  LIG11      -0.1867
     10 N          -8.3996    4.6206   -3.9002 N.ar    1  LIG11      -0.2331
     11 N          -9.9675    2.8558   -3.5344 N.ar    1  LIG11      -0.2331
     12 C          -6.8474    3.9263   -0.1593 C.ar    1  LIG11       0.1883
     13 C          -6.9885    2.7210    0.5003 C.ar    1  LIG11       0.2307
     14 C          -7.8045    1.8208   -0.1539 C.ar    1  LIG11       0.2639
     15 C          -6.2361    3.2315    2.6944 C.ar    1  LIG11       0.1702
     16 C          -4.3494    5.7687   -1.7320 C.2     1  LIG11       0.0729
     17 C          -8.2464    3.3020   -1.8561 C.ar    1  LIG11       0.2027
     18 C          -5.0384    3.2587    3.4239 C.ar    1  LIG11       0.1621
     19 C          -4.7293    5.1981   -2.8847 C.2     1  LIG11      -0.0353
     20 C          -4.7069    5.9064   -4.1705 C.ar    1  LIG11      -0.0237
     21 C          -7.2940    4.0832    3.0612 C.ar    1  LIG11      -0.0157
     22 C          -8.9061    3.6077   -3.1570 C.ar    1  LIG11       0.1978
     23 C          -4.8933    4.2080    4.4458 C.ar    1  LIG11      -0.0163
     24 C          -7.1315    5.0206    4.0816 C.ar    1  LIG11      -0.0581
     25 C          -5.9246    5.0909    4.7673 C.ar    1  LIG11      -0.0581
     26 C          -5.1240    7.2383   -4.2967 C.ar    1  LIG11      -0.0546
     27 C          -4.3007    5.2138   -5.3171 C.ar    1  LIG11      -0.0546
     28 C          -5.1035    7.8738   -5.5407 C.ar    1  LIG11      -0.0612
     29 C          -4.2795    5.8497   -6.5606 C.ar    1  LIG11      -0.0612
     30 C          -4.6776    7.1804   -6.6715 C.ar    1  LIG11      -0.0617
     31 C          -8.7777   -0.3126   -0.3332 C.3     1  LIG11       0.0805
     32 C          -3.9864    1.3472    2.4175 C.3     1  LIG11       0.0790
     33 C          -8.9946    4.8640   -5.0816 C.ar    1  LIG11       0.0315
     34 C         -10.5302    3.1551   -4.7194 C.ar    1  LIG11       0.0315
     35 C         -10.0782    4.1572   -5.5438 C.ar    1  LIG11      -0.0254
     36 H          -6.3925    5.8731    0.0338 H       1  LIG11       0.1753
     37 H          -3.9825    6.7824   -1.6642 H       1  LIG11       0.0838
     38 H          -5.0537    4.1610   -2.9178 H       1  LIG11       0.0637
     39 H          -8.2503    4.0332    2.5484 H       1  LIG11       0.0655
     40 H          -3.9572    4.2561    4.9982 H       1  LIG11       0.0655
     41 H          -7.9436    5.6953    4.3383 H       1  LIG11       0.0619
     42 H          -5.7835    5.8226    5.5581 H       1  LIG11       0.0619
     43 H          -5.4787    7.7945   -3.4328 H       1  LIG11       0.0623
     44 H          -3.9833    4.1752   -5.2495 H       1  LIG11       0.0623
     45 H          -5.4217    8.9096   -5.6258 H       1  LIG11       0.0618
     46 H          -3.9487    5.3052   -7.4412 H       1  LIG11       0.0618
     47 H          -4.6570    7.6758   -7.6385 H       1  LIG11       0.0618
     48 H          -8.8375   -1.2595    0.2123 H       1  LIG11       0.0660
     49 H          -8.3134   -0.5169   -1.3042 H       1  LIG11       0.0660
     50 H          -9.7986    0.0655   -0.4556 H       1  LIG11       0.0660
     51 H          -3.0575    0.7827    2.5466 H       1  LIG11       0.0660
     52 H          -4.0318    1.6538    1.3703 H       1  LIG11       0.0660
     53 H          -4.8114    0.6782    2.6821 H       1  LIG11       0.0660
     54 H          -8.5565    5.6706   -5.6631 H       1  LIG11       0.0831
     55 H         -11.3835    2.5417   -4.9949 H       1  LIG11       0.0831
     56 H         -10.5445    4.3742   -6.4945 H       1  LIG11       0.0648
@<TRIPOS>BOND
     1     1     4    2
     2     1     5    2
     3     1     7    1
     4     1    16    1
     5     2    13    1
     6     2    15    1
     7     3    14    1
     8     3    31    1
     9     6    18    1
    10     6    32    1
    11     7    12    1
    12     8    12   ar
    13     8    17   ar
    14     9    14   ar
    15     9    17   ar
    16    10    22   ar
    17    10    33   ar
    18    11    22   ar
    19    11    34   ar
    20    12    13   ar
    21    13    14   ar
    22    15    18   ar
    23    15    21   ar
    24    16    19    2
    25    17    22    1
    26    18    23   ar
    27    19    20    1
    28    20    26   ar
    29    20    27   ar
    30    21    24   ar
    31    23    25   ar
    32    24    25   ar
    33    26    28   ar
    34    27    29   ar
    35    28    30   ar
    36    29    30   ar
    37    33    35   ar
    38    34    35   ar
    39     7    36    1
    40    16    37    1
    41    19    38    1
    42    21    39    1
    43    23    40    1
    44    24    41    1
    45    25    42    1
    46    26    43    1
    47    27    44    1
    48    28    45    1
    49    29    46    1
    50    30    47    1
    51    31    48    1
    52    31    49    1
    53    31    50    1
    54    32    51    1
    55    32    52    1
    56    32    53    1
    57    33    54    1
    58    34    55    1
    59    35    56    1
@<TRIPOS>MOLECULE
../1EDN/PCA1_17-21.pdb
 47 48 0 0 0
SMALL
GASTEIGER

@<TRIPOS>ATOM
      1  N         -4.6470   -0.3680   -1.6750 N.3    17  LEU17      -0.1231
      2  CA        -5.8920   -0.8550   -2.2480 C.3    17  LEU17       0.1693
      3  CB        -6.0770   -2.3450   -1.7480 C.3    17  LEU17       0.0284
      4  CG        -7.4170   -3.0590   -2.1890 C.3    17  LEU17       0.0019
      5  CD1       -7.4920   -3.1930   -3.7220 C.3    17  LEU17       0.0001
      6  CD2       -7.5340   -4.4610   -1.6100 C.3    17  LEU17       0.0001
      7  C         -7.0080    0.1010   -1.8270 C.2    17  LEU17       0.2592
      8  O         -7.6220    0.6590   -2.7680 O.2    17  LEU17      -0.2718
      9  N         -7.2890    0.1920   -0.5460 N.am   18  ASP18      -0.1960
     10  CA        -8.2730    1.1070    0.1120 C.3    18  ASP18       0.1840
     11  CB        -8.8290    0.4520    1.4200 C.3    18  ASP18       0.1450
     12  CG        -9.9140    1.2760    2.0640 C.2    18  ASP18       0.3671
     13  OD1      -10.8560    1.7240    1.3430 O.co2  18  ASP18      -0.2456
     14  OD2       -9.7710    1.5960    3.2830 O.co2  18  ASP18      -0.2456
     15  C         -7.6270    2.4530    0.4740 C.2    18  ASP18       0.2622
     16  O         -8.0770    3.4620   -0.0480 O.2    18  ASP18      -0.2715
     17  N         -6.6010    2.4770    1.3340 N.am   19  ILE19      -0.1963
     18  CA        -6.1660    3.6270    2.0790 C.3    19  ILE19       0.1727
     19  CB        -5.0730    3.3500    3.1520 C.3    19  ILE19       0.0290
     20  CG2       -4.5850    4.5470    3.9530 C.3    19  ILE19       0.0023
     21  CG1       -5.6210    2.1420    3.9730 C.3    19  ILE19       0.0022
     22  CD1       -6.7460    2.5740    4.8760 C.3    19  ILE19       0.0001
     23  C         -5.6740    4.7260    1.1170 C.2    19  ILE19       0.2616
     24  O         -5.9640    5.8590    1.4260 O.2    19  ILE19      -0.2715
     25  N         -4.8940    4.3400    0.1060 N.am   20  ILE20      -0.1963
     26  CA        -4.3700    5.1770   -0.9560 C.3    20  ILE20       0.1727
     27  CB        -2.8480    5.4620   -0.8180 C.3    20  ILE20       0.0290
     28  CG2       -2.5210    6.1670    0.5290 C.3    20  ILE20       0.0023
     29  CG1       -1.9270    4.2500   -0.9510 C.3    20  ILE20       0.0022
     30  CD1       -0.4520    4.4090   -1.0350 C.3    20  ILE20       0.0001
     31  C         -4.8260    4.7960   -2.3980 C.2    20  ILE20       0.2617
     32  O         -4.8210    3.6210   -2.7490 O.2    20  ILE20      -0.2715
     33  N         -5.1950    5.7710   -3.1960 N.am   21  TRP21      -0.1941
     34  CA        -5.6960    5.8160   -4.5740 C.3    21  TRP21       0.1982
     35  CB        -7.1930    6.0870   -4.6010 C.3    21  TRP21       0.0394
     36  CG        -8.1480    4.9210   -4.3560 C.3    21  TRP21       0.0475
     37  CD1       -8.4270    4.3170   -3.1580 C.3    21  TRP21       0.1166
     38  NE1       -9.4680    3.4340   -3.3480 N.pl3  21  TRP21      -0.2376
     39  CE2      -10.0400    3.5420   -4.5600 C.ar   21  TRP21       0.0614
     40  CZ2      -11.2420    2.9770   -5.0990 C.ar   21  TRP21       0.0158
     41  CH2      -11.3060    3.0240   -6.5170 C.ar   21  TRP21       0.0013
     42  CZ3      -10.3640    3.7270   -7.2650 C.ar   21  TRP21      -0.0002
     43  CE3       -9.2810    4.3830   -6.7050 C.ar   21  TRP21      -0.0030
     44  CD2       -9.0950    4.3440   -5.3390 C.ar   21  TRP21      -0.0059
     45  C         -4.8510    6.8160   -5.3910 C.2    21  TRP21       0.3842
     46  O         -5.0400    8.0490   -5.1500 O.co2  21  TRP21      -0.2437
     47  OXT       -3.9720    6.3760   -6.1010 O.co2  21  TRP21      -0.2437
@<TRIPOS>BOND
     1    42    43   ar
     2    42    41   ar
     3    43    44   ar
     4    41    40   ar
     5    47    45   ar
     6    45    46   ar
     7    45    34    1
     8    44    39   ar
     9    44    36    1
    10    40    39   ar
    11    35    34    1
    12    35    36    1
    13    34    33    1
    14    39    38    1
    15    36    37    1
    16     5     4    1
    17    38    37    1
    18    33    31   am
    19     8     7    2
    20    32    31    2
    21    31    26    1
    22     2     7    1
    23     2     3    1
    24     2     1    1
    25     4     3    1
    26     4     6    1
    27     7     9   am
    28    30    29    1
    29    26    27    1
    30    26    25    1
    31    29    27    1
    32    27    28    1
    33     9    10    1
    34    16    15    2
    35    25    23   am
    36    10    15    1
    37    10    11    1
    38    15    17   am
    39    23    24    2
    40    23    18    1
    41    17    18    1
    42    13    12   ar
    43    11    12    1
    44    12    14   ar
    45    18    19    1
    46    19    20    1
    47    19    21    1
    48    21    22    1
