@<TRIPOS>MOLECULE
02228316B
 82 86 0 0 0
SMALL
GASTEIGER

@<TRIPOS>ATOM
      1 C          -8.9112    0.9798    1.1253 C.3     1  LIG11       0.2491
      2 C          -7.6618    1.7637    0.7985 C.2     1  LIG11       0.3556
      3 N          -8.5698   -0.4047    0.7104 N.2     1  LIG11      -0.0687
      4 C          -9.2521    1.0203    2.6195 C.3     1  LIG11       0.0059
      5 C         -10.1426    1.4835    0.3705 C.3     1  LIG11       0.0059
      6 N          -6.8597    0.9109    0.0882 N.am    1  LIG11      -0.1529
      7 O          -7.3982    2.8964    1.1726 O.2     1  LIG11      -0.2422
      8 C          -7.3934   -0.3173    0.1619 C.2     1  LIG11       0.2916
      9 C         -10.5518    1.8127    2.7010 C.3     1  LIG11      -0.0481
     10 C         -11.2617    1.4600    1.4055 C.3     1  LIG11      -0.0481
     11 C          -5.5397    1.3393   -0.3339 C.3     1  LIG11       0.1137
     12 C          -6.6860   -1.5940   -0.2521 C.3     1  LIG11       0.0509
     13 C          -5.5504    2.4078   -1.4094 C.ar    1  LIG11      -0.0073
     14 C          -6.1365   -1.7203   -1.6670 C.3     1  LIG11      -0.0424
     15 C          -4.5486    3.3855   -1.3956 C.ar    1  LIG11      -0.0491
     16 C          -6.5003    2.4733   -2.4215 C.ar    1  LIG11      -0.0544
     17 C          -7.1397   -1.4077   -2.7712 C.3     1  LIG11      -0.0554
     18 C          -4.5406    4.4935   -2.2698 C.ar    1  LIG11      -0.0138
     19 C          -6.4778    3.5235   -3.3454 C.ar    1  LIG11      -0.0533
     20 C          -6.4467   -1.3882   -4.1265 C.3     1  LIG11      -0.0653
     21 C          -5.5540    4.5837   -3.2635 C.ar    1  LIG11      -0.0106
     22 C          -3.3902    5.4890   -2.1728 C.3     1  LIG11       0.0732
     23 C          -5.6402    5.7019   -4.2404 C.ar    1  LIG11       0.0091
     24 O          -3.0670    5.9798   -0.8732 O.3     1  LIG11      -0.3754
     25 C          -6.6837    6.6509   -4.3521 C.ar    1  LIG11       0.1162
     26 C          -4.5599    5.8528   -5.1462 C.ar    1  LIG11      -0.0521
     27 C          -2.2051    5.2383   -0.0196 C.3     1  LIG11       0.0453
     28 S          -8.2238    6.6070   -3.4427 S.O2    1  LIG11       0.0741
     29 C          -6.5806    7.7388   -5.2481 C.ar    1  LIG11      -0.0345
     30 C          -4.4729    6.9233   -6.0423 C.ar    1  LIG11      -0.0611
     31 C          -1.0597    4.4897   -0.6809 C.3     1  LIG11      -0.0416
     32 N          -9.3644    6.3479   -4.6910 N.pl3   1  LIG11      -0.1965
     33 O          -8.2839    5.5045   -2.5193 O.2     1  LIG11      -0.1499
     34 O          -8.4739    7.9628   -2.9835 O.2     1  LIG11      -0.1499
     35 C          -5.4756    7.8780   -6.0808 C.ar    1  LIG11      -0.0599
     36 C          -9.6457    5.0391   -5.0715 C.ar    1  LIG11       0.1837
     37 C          -8.9957    4.2824   -6.0803 C.ar    1  LIG11       0.0342
     38 N         -10.7014    4.3938   -4.5769 N.ar    1  LIG11      -0.0614
     39 C          -9.6509    3.0683   -6.0401 C.ar    1  LIG11       0.1390
     40 C          -7.8855    4.6659   -6.9805 C.3     1  LIG11      -0.0330
     41 O         -10.6725    3.1354   -5.1477 O.2     1  LIG11      -0.3578
     42 C          -9.4859    1.7805   -6.7402 C.3     1  LIG11      -0.0034
     43 H          -8.4744    1.4880    3.2335 H       1  LIG11       0.0316
     44 H          -9.4162    0.0103    3.0132 H       1  LIG11       0.0316
     45 H         -10.3985    0.8707   -0.5002 H       1  LIG11       0.0316
     46 H          -9.9954    2.5123    0.0194 H       1  LIG11       0.0316
     47 H         -10.3378    2.8880    2.7353 H       1  LIG11       0.0267
     48 H         -11.1401    1.5532    3.5858 H       1  LIG11       0.0267
     49 H         -11.6929    0.4538    1.4733 H       1  LIG11       0.0267
     50 H         -12.0653    2.1618    1.1655 H       1  LIG11       0.0267
     51 H          -4.9326    0.4981   -0.6620 H       1  LIG11       0.0783
     52 H          -5.0502    1.7440    0.5619 H       1  LIG11       0.0783
     53 H          -7.3880   -2.4233   -0.0852 H       1  LIG11       0.0387
     54 H          -5.8653   -1.7469    0.4611 H       1  LIG11       0.0387
     55 H          -5.7855   -2.7531   -1.7979 H       1  LIG11       0.0271
     56 H          -5.2457   -1.1022   -1.7933 H       1  LIG11       0.0271
     57 H          -3.7680    3.2803   -0.6532 H       1  LIG11       0.0625
     58 H          -7.3051    1.7483   -2.4890 H       1  LIG11       0.0622
     59 H          -7.6113   -0.4366   -2.6018 H       1  LIG11       0.0263
     60 H          -7.9380   -2.1571   -2.7757 H       1  LIG11       0.0263
     61 H          -7.2531    3.5337   -4.1035 H       1  LIG11       0.0624
     62 H          -5.6445   -0.6407   -4.1451 H       1  LIG11       0.0230
     63 H          -7.1576   -1.1387   -4.9187 H       1  LIG11       0.0230
     64 H          -6.0051   -2.3640   -4.3549 H       1  LIG11       0.0230
     65 H          -3.6585    6.3978   -2.7156 H       1  LIG11       0.0610
     66 H          -2.5105    5.0874   -2.6869 H       1  LIG11       0.0610
     67 H          -3.7453    5.1289   -5.1363 H       1  LIG11       0.0624
     68 H          -2.8032    4.5647    0.6014 H       1  LIG11       0.0557
     69 H          -1.7784    5.9633    0.6820 H       1  LIG11       0.0557
     70 H          -7.3726    8.4860   -5.3010 H       1  LIG11       0.0637
     71 H          -3.6094    7.0157   -6.6962 H       1  LIG11       0.0618
     72 H          -1.4223    3.6775   -1.3194 H       1  LIG11       0.0252
     73 H          -0.4099    4.0429    0.0792 H       1  LIG11       0.0252
     74 H          -0.4611    5.1595   -1.3046 H       1  LIG11       0.0252
     75 H         -10.2015    6.8466   -4.3860 H       1  LIG11       0.1753
     76 H          -5.4067    8.7265   -6.7584 H       1  LIG11       0.0618
     77 H          -7.7979    5.7516   -7.0689 H       1  LIG11       0.0280
     78 H          -8.0536    4.2753   -7.9901 H       1  LIG11       0.0280
     79 H          -6.9364    4.2610   -6.6186 H       1  LIG11       0.0280
     80 H          -8.6529    1.8161   -7.4497 H       1  LIG11       0.0309
     81 H         -10.3930    1.5219   -7.2943 H       1  LIG11       0.0309
     82 H          -9.2794    0.9803   -6.0217 H       1  LIG11       0.0309
@<TRIPOS>BOND
     1     1     5    1
     2     1     4    1
     3     1     2    1
     4     1     3    1
     5     2     6   am
     6     2     7    2
     7     3     8    2
     8     4     9    1
     9     5    10    1
    10     6     8    1
    11     6    11    1
    12     8    12    1
    13     9    10    1
    14    11    13    1
    15    12    14    1
    16    13    15   ar
    17    13    16   ar
    18    14    17    1
    19    15    18   ar
    20    16    19   ar
    21    17    20    1
    22    18    21   ar
    23    18    22    1
    24    19    21   ar
    25    21    23    1
    26    22    24    1
    27    23    26   ar
    28    23    25   ar
    29    24    27    1
    30    25    29   ar
    31    25    28    1
    32    26    30   ar
    33    27    31    1
    34    28    34    2
    35    28    33    2
    36    28    32    1
    37    29    35   ar
    38    30    35   ar
    39    32    36    1
    40    36    37   ar
    41    36    38   ar
    42    37    39   ar
    43    37    40    1
    44    38    41   ar
    45    39    41   ar
    46    39    42    1
    47     4    43    1
    48     4    44    1
    49     5    45    1
    50     5    46    1
    51     9    47    1
    52     9    48    1
    53    10    49    1
    54    10    50    1
    55    11    51    1
    56    11    52    1
    57    12    53    1
    58    12    54    1
    59    14    55    1
    60    14    56    1
    61    15    57    1
    62    16    58    1
    63    17    59    1
    64    17    60    1
    65    19    61    1
    66    20    62    1
    67    20    63    1
    68    20    64    1
    69    22    65    1
    70    22    66    1
    71    26    67    1
    72    27    68    1
    73    27    69    1
    74    29    70    1
    75    30    71    1
    76    31    72    1
    77    31    73    1
    78    31    74    1
    79    32    75    1
    80    35    76    1
    81    40    77    1
    82    40    78    1
    83    40    79    1
    84    42    80    1
    85    42    81    1
    86    42    82    1
@<TRIPOS>MOLECULE
../1EDN/PCA1_17-21.pdb
 47 48 0 0 0
SMALL
GASTEIGER

@<TRIPOS>ATOM
      1  N         -4.6470   -0.3680   -1.6750 N.3    17  LEU17      -0.1231
      2  CA        -5.8920   -0.8550   -2.2480 C.3    17  LEU17       0.1693
      3  CB        -6.0770   -2.3450   -1.7480 C.3    17  LEU17       0.0284
      4  CG        -7.4170   -3.0590   -2.1890 C.3    17  LEU17       0.0019
      5  CD1       -7.4920   -3.1930   -3.7220 C.3    17  LEU17       0.0001
      6  CD2       -7.5340   -4.4610   -1.6100 C.3    17  LEU17       0.0001
      7  C         -7.0080    0.1010   -1.8270 C.2    17  LEU17       0.2592
      8  O         -7.6220    0.6590   -2.7680 O.2    17  LEU17      -0.2718
      9  N         -7.2890    0.1920   -0.5460 N.am   18  ASP18      -0.1960
     10  CA        -8.2730    1.1070    0.1120 C.3    18  ASP18       0.1840
     11  CB        -8.8290    0.4520    1.4200 C.3    18  ASP18       0.1450
     12  CG        -9.9140    1.2760    2.0640 C.2    18  ASP18       0.3671
     13  OD1      -10.8560    1.7240    1.3430 O.co2  18  ASP18      -0.2456
     14  OD2       -9.7710    1.5960    3.2830 O.co2  18  ASP18      -0.2456
     15  C         -7.6270    2.4530    0.4740 C.2    18  ASP18       0.2622
     16  O         -8.0770    3.4620   -0.0480 O.2    18  ASP18      -0.2715
     17  N         -6.6010    2.4770    1.3340 N.am   19  ILE19      -0.1963
     18  CA        -6.1660    3.6270    2.0790 C.3    19  ILE19       0.1727
     19  CB        -5.0730    3.3500    3.1520 C.3    19  ILE19       0.0290
     20  CG2       -4.5850    4.5470    3.9530 C.3    19  ILE19       0.0023
     21  CG1       -5.6210    2.1420    3.9730 C.3    19  ILE19       0.0022
     22  CD1       -6.7460    2.5740    4.8760 C.3    19  ILE19       0.0001
     23  C         -5.6740    4.7260    1.1170 C.2    19  ILE19       0.2616
     24  O         -5.9640    5.8590    1.4260 O.2    19  ILE19      -0.2715
     25  N         -4.8940    4.3400    0.1060 N.am   20  ILE20      -0.1963
     26  CA        -4.3700    5.1770   -0.9560 C.3    20  ILE20       0.1727
     27  CB        -2.8480    5.4620   -0.8180 C.3    20  ILE20       0.0290
     28  CG2       -2.5210    6.1670    0.5290 C.3    20  ILE20       0.0023
     29  CG1       -1.9270    4.2500   -0.9510 C.3    20  ILE20       0.0022
     30  CD1       -0.4520    4.4090   -1.0350 C.3    20  ILE20       0.0001
     31  C         -4.8260    4.7960   -2.3980 C.2    20  ILE20       0.2617
     32  O         -4.8210    3.6210   -2.7490 O.2    20  ILE20      -0.2715
     33  N         -5.1950    5.7710   -3.1960 N.am   21  TRP21      -0.1941
     34  CA        -5.6960    5.8160   -4.5740 C.3    21  TRP21       0.1982
     35  CB        -7.1930    6.0870   -4.6010 C.3    21  TRP21       0.0394
     36  CG        -8.1480    4.9210   -4.3560 C.3    21  TRP21       0.0475
     37  CD1       -8.4270    4.3170   -3.1580 C.3    21  TRP21       0.1166
     38  NE1       -9.4680    3.4340   -3.3480 N.pl3  21  TRP21      -0.2376
     39  CE2      -10.0400    3.5420   -4.5600 C.ar   21  TRP21       0.0614
     40  CZ2      -11.2420    2.9770   -5.0990 C.ar   21  TRP21       0.0158
     41  CH2      -11.3060    3.0240   -6.5170 C.ar   21  TRP21       0.0013
     42  CZ3      -10.3640    3.7270   -7.2650 C.ar   21  TRP21      -0.0002
     43  CE3       -9.2810    4.3830   -6.7050 C.ar   21  TRP21      -0.0030
     44  CD2       -9.0950    4.3440   -5.3390 C.ar   21  TRP21      -0.0059
     45  C         -4.8510    6.8160   -5.3910 C.2    21  TRP21       0.3842
     46  O         -5.0400    8.0490   -5.1500 O.co2  21  TRP21      -0.2437
     47  OXT       -3.9720    6.3760   -6.1010 O.co2  21  TRP21      -0.2437
@<TRIPOS>BOND
     1    42    43   ar
     2    42    41   ar
     3    43    44   ar
     4    41    40   ar
     5    47    45   ar
     6    45    46   ar
     7    45    34    1
     8    44    39   ar
     9    44    36    1
    10    40    39   ar
    11    35    34    1
    12    35    36    1
    13    34    33    1
    14    39    38    1
    15    36    37    1
    16     5     4    1
    17    38    37    1
    18    33    31   am
    19     8     7    2
    20    32    31    2
    21    31    26    1
    22     2     7    1
    23     2     3    1
    24     2     1    1
    25     4     3    1
    26     4     6    1
    27     7     9   am
    28    30    29    1
    29    26    27    1
    30    26    25    1
    31    29    27    1
    32    27    28    1
    33     9    10    1
    34    16    15    2
    35    25    23   am
    36    10    15    1
    37    10    11    1
    38    15    17   am
    39    23    24    2
    40    23    18    1
    41    17    18    1
    42    13    12   ar
    43    11    12    1
    44    12    14   ar
    45    18    19    1
    46    19    20    1
    47    19    21    1
    48    21    22    1
