@<TRIPOS>MOLECULE
178103
 66 70 0 0 0
SMALL
GASTEIGER

@<TRIPOS>ATOM
      1 O         -10.1876    4.3773   -2.3686 O.co2   1  LIG11      -0.5495
      2 O          -9.4973    3.1834   -4.1783 O.co2   1  LIG11      -0.5495
      3 O          -5.1540    3.9221    2.8933 O.3     1  LIG11      -0.4920
      4 O          -9.1725    0.9684    0.5657 O.3     1  LIG11      -0.4893
      5 O          -3.0280    6.1954   -4.3716 O.3     1  LIG11      -0.4526
      6 O          -4.1182    6.9556   -6.3860 O.3     1  LIG11      -0.4526
      7 O          -6.8887   -2.7663   -1.3602 O.3     1  LIG11      -0.4950
      8 O          -9.8974    1.7607    3.1984 O.3     1  LIG11      -0.3917
      9 C          -7.9324    3.6310   -2.4803 C.3     1  LIG11       0.0203
     10 C          -8.0006    2.8439   -1.1467 C.3     1  LIG11       0.0218
     11 C          -7.4002    5.0531   -2.1779 C.3     1  LIG11       0.0184
     12 C          -7.0485    3.6287   -0.2698 C.ar    1  LIG11      -0.0320
     13 C          -6.7492    4.8739   -0.8240 C.ar    1  LIG11      -0.0353
     14 C          -7.6672    1.3499   -1.2144 C.ar    1  LIG11       0.0025
     15 C          -6.4992    5.5524   -3.3113 C.ar    1  LIG11      -0.0356
     16 C          -9.3428    3.7338   -3.0531 C.2     1  LIG11       0.0466
     17 C          -6.5702    3.2732    0.9894 C.ar    1  LIG11      -0.0159
     18 C          -6.0011    5.7984   -0.1052 C.ar    1  LIG11      -0.0542
     19 C          -8.3016    0.4322   -0.3479 C.ar    1  LIG11       0.1278
     20 C          -5.7508    4.1632    1.6844 C.ar    1  LIG11       0.1208
     21 C          -5.0946    5.5729   -3.2355 C.ar    1  LIG11      -0.0124
     22 C          -5.4854    5.4283    1.1399 C.ar    1  LIG11      -0.0196
     23 C          -7.1188    5.9885   -4.5106 C.ar    1  LIG11      -0.0543
     24 C          -6.6900    0.8563   -2.0970 C.ar    1  LIG11      -0.0510
     25 C          -4.3824    6.0707   -4.3083 C.ar    1  LIG11       0.1665
     26 C          -6.3702    6.4634   -5.5938 C.ar    1  LIG11      -0.0159
     27 C          -8.0022   -0.9340   -0.4319 C.ar    1  LIG11       0.0221
     28 C          -6.4042   -0.5088   -2.1794 C.ar    1  LIG11      -0.0194
     29 C          -5.0026    6.5059   -5.4548 C.ar    1  LIG11       0.1662
     30 C          -7.0786   -1.4096   -1.3638 C.ar    1  LIG11       0.1236
     31 C          -5.3620    2.6319    3.4693 C.3     1  LIG11       0.0893
     32 C          -2.8752    6.7865   -5.6765 C.3     1  LIG11       0.2332
     33 C          -9.8485    0.0799    1.4555 C.3     1  LIG11       0.1126
     34 C          -4.3479    2.4328    4.5933 C.3     1  LIG11      -0.0215
     35 C         -10.7187    0.9271    2.3786 C.3     1  LIG11       0.0783
     36 C          -6.4217   -3.3149   -2.5880 C.3     1  LIG11       0.0788
     37 C          -2.9311    2.2936    4.0502 C.3     1  LIG11      -0.0622
     38 H          -9.4050    2.3279    2.5714 H       1  LIG11       0.2095
     39 H          -7.2950    3.1459   -3.2263 H       1  LIG11       0.0379
     40 H          -9.0010    2.9586   -0.7097 H       1  LIG11       0.0405
     41 H          -8.2029    5.7901   -2.0439 H       1  LIG11       0.0404
     42 H          -6.8501    2.3100    1.3962 H       1  LIG11       0.0657
     43 H          -5.8057    6.7870   -0.5091 H       1  LIG11       0.0622
     44 H          -4.5602    5.2136   -2.3639 H       1  LIG11       0.0658
     45 H          -4.8724    6.1325    1.6955 H       1  LIG11       0.0654
     46 H          -8.2052    5.9349   -4.6037 H       1  LIG11       0.0622
     47 H          -6.1321    1.5328   -2.7407 H       1  LIG11       0.0623
     48 H          -6.8566    6.7813   -6.5079 H       1  LIG11       0.0655
     49 H          -8.4833   -1.6620    0.2109 H       1  LIG11       0.0691
     50 H          -5.6466   -0.8290   -2.8854 H       1  LIG11       0.0654
     51 H          -6.3775    2.5852    3.8795 H       1  LIG11       0.0696
     52 H          -5.2227    1.8305    2.7343 H       1  LIG11       0.0696
     53 H          -2.4028    7.7696   -5.5619 H       1  LIG11       0.1166
     54 H          -2.2130    6.1499   -6.2740 H       1  LIG11       0.1166
     55 H         -10.4824   -0.6119    0.8902 H       1  LIG11       0.0720
     56 H          -9.1145   -0.4664    2.0595 H       1  LIG11       0.0720
     57 H          -4.3793    3.2847    5.2819 H       1  LIG11       0.0295
     58 H          -4.6038    1.5301    5.1588 H       1  LIG11       0.0295
     59 H         -11.3143    0.2883    3.0371 H       1  LIG11       0.0591
     60 H         -11.3904    1.5759    1.8078 H       1  LIG11       0.0591
     61 H          -6.5320   -4.4021   -2.5297 H       1  LIG11       0.0660
     62 H          -7.0177   -2.9657   -3.4387 H       1  LIG11       0.0660
     63 H          -5.3594   -3.0962   -2.7343 H       1  LIG11       0.0660
     64 H          -2.6229    3.1915    3.5057 H       1  LIG11       0.0231
     65 H          -2.2242    2.1336    4.8698 H       1  LIG11       0.0231
     66 H          -2.8578    1.4392    3.3690 H       1  LIG11       0.0231
@<TRIPOS>BOND
     1     1    16   ar
     2     2    16   ar
     3     3    20    1
     4     3    31    1
     5     4    19    1
     6     4    33    1
     7     5    25    1
     8     5    32    1
     9     6    29    1
    10     6    32    1
    11     7    30    1
    12     7    36    1
    13     8    35    1
    14     9    10    1
    15     9    11    1
    16     9    16    1
    17    10    12    1
    18    10    14    1
    19    11    13    1
    20    11    15    1
    21    12    13   ar
    22    12    17   ar
    23    13    18   ar
    24    14    19   ar
    25    14    24   ar
    26    15    21   ar
    27    15    23   ar
    28    17    20   ar
    29    18    22   ar
    30    19    27   ar
    31    20    22   ar
    32    21    25   ar
    33    23    26   ar
    34    24    28   ar
    35    25    29   ar
    36    26    29   ar
    37    27    30   ar
    38    28    30   ar
    39    31    34    1
    40    33    35    1
    41    34    37    1
    42     8    38    1
    43     9    39    1
    44    10    40    1
    45    11    41    1
    46    17    42    1
    47    18    43    1
    48    21    44    1
    49    22    45    1
    50    23    46    1
    51    24    47    1
    52    26    48    1
    53    27    49    1
    54    28    50    1
    55    31    51    1
    56    31    52    1
    57    32    53    1
    58    32    54    1
    59    33    55    1
    60    33    56    1
    61    34    57    1
    62    34    58    1
    63    35    59    1
    64    35    60    1
    65    36    61    1
    66    36    62    1
    67    36    63    1
    68    37    64    1
    69    37    65    1
    70    37    66    1
@<TRIPOS>MOLECULE
../1EDN/PCA1_17-21.pdb
 47 48 0 0 0
SMALL
GASTEIGER

@<TRIPOS>ATOM
      1  N         -4.6470   -0.3680   -1.6750 N.3    17  LEU17      -0.1231
      2  CA        -5.8920   -0.8550   -2.2480 C.3    17  LEU17       0.1693
      3  CB        -6.0770   -2.3450   -1.7480 C.3    17  LEU17       0.0284
      4  CG        -7.4170   -3.0590   -2.1890 C.3    17  LEU17       0.0019
      5  CD1       -7.4920   -3.1930   -3.7220 C.3    17  LEU17       0.0001
      6  CD2       -7.5340   -4.4610   -1.6100 C.3    17  LEU17       0.0001
      7  C         -7.0080    0.1010   -1.8270 C.2    17  LEU17       0.2592
      8  O         -7.6220    0.6590   -2.7680 O.2    17  LEU17      -0.2718
      9  N         -7.2890    0.1920   -0.5460 N.am   18  ASP18      -0.1960
     10  CA        -8.2730    1.1070    0.1120 C.3    18  ASP18       0.1840
     11  CB        -8.8290    0.4520    1.4200 C.3    18  ASP18       0.1450
     12  CG        -9.9140    1.2760    2.0640 C.2    18  ASP18       0.3671
     13  OD1      -10.8560    1.7240    1.3430 O.co2  18  ASP18      -0.2456
     14  OD2       -9.7710    1.5960    3.2830 O.co2  18  ASP18      -0.2456
     15  C         -7.6270    2.4530    0.4740 C.2    18  ASP18       0.2622
     16  O         -8.0770    3.4620   -0.0480 O.2    18  ASP18      -0.2715
     17  N         -6.6010    2.4770    1.3340 N.am   19  ILE19      -0.1963
     18  CA        -6.1660    3.6270    2.0790 C.3    19  ILE19       0.1727
     19  CB        -5.0730    3.3500    3.1520 C.3    19  ILE19       0.0290
     20  CG2       -4.5850    4.5470    3.9530 C.3    19  ILE19       0.0023
     21  CG1       -5.6210    2.1420    3.9730 C.3    19  ILE19       0.0022
     22  CD1       -6.7460    2.5740    4.8760 C.3    19  ILE19       0.0001
     23  C         -5.6740    4.7260    1.1170 C.2    19  ILE19       0.2616
     24  O         -5.9640    5.8590    1.4260 O.2    19  ILE19      -0.2715
     25  N         -4.8940    4.3400    0.1060 N.am   20  ILE20      -0.1963
     26  CA        -4.3700    5.1770   -0.9560 C.3    20  ILE20       0.1727
     27  CB        -2.8480    5.4620   -0.8180 C.3    20  ILE20       0.0290
     28  CG2       -2.5210    6.1670    0.5290 C.3    20  ILE20       0.0023
     29  CG1       -1.9270    4.2500   -0.9510 C.3    20  ILE20       0.0022
     30  CD1       -0.4520    4.4090   -1.0350 C.3    20  ILE20       0.0001
     31  C         -4.8260    4.7960   -2.3980 C.2    20  ILE20       0.2617
     32  O         -4.8210    3.6210   -2.7490 O.2    20  ILE20      -0.2715
     33  N         -5.1950    5.7710   -3.1960 N.am   21  TRP21      -0.1941
     34  CA        -5.6960    5.8160   -4.5740 C.3    21  TRP21       0.1982
     35  CB        -7.1930    6.0870   -4.6010 C.3    21  TRP21       0.0394
     36  CG        -8.1480    4.9210   -4.3560 C.3    21  TRP21       0.0475
     37  CD1       -8.4270    4.3170   -3.1580 C.3    21  TRP21       0.1166
     38  NE1       -9.4680    3.4340   -3.3480 N.pl3  21  TRP21      -0.2376
     39  CE2      -10.0400    3.5420   -4.5600 C.ar   21  TRP21       0.0614
     40  CZ2      -11.2420    2.9770   -5.0990 C.ar   21  TRP21       0.0158
     41  CH2      -11.3060    3.0240   -6.5170 C.ar   21  TRP21       0.0013
     42  CZ3      -10.3640    3.7270   -7.2650 C.ar   21  TRP21      -0.0002
     43  CE3       -9.2810    4.3830   -6.7050 C.ar   21  TRP21      -0.0030
     44  CD2       -9.0950    4.3440   -5.3390 C.ar   21  TRP21      -0.0059
     45  C         -4.8510    6.8160   -5.3910 C.2    21  TRP21       0.3842
     46  O         -5.0400    8.0490   -5.1500 O.co2  21  TRP21      -0.2437
     47  OXT       -3.9720    6.3760   -6.1010 O.co2  21  TRP21      -0.2437
@<TRIPOS>BOND
     1    42    43   ar
     2    42    41   ar
     3    43    44   ar
     4    41    40   ar
     5    47    45   ar
     6    45    46   ar
     7    45    34    1
     8    44    39   ar
     9    44    36    1
    10    40    39   ar
    11    35    34    1
    12    35    36    1
    13    34    33    1
    14    39    38    1
    15    36    37    1
    16     5     4    1
    17    38    37    1
    18    33    31   am
    19     8     7    2
    20    32    31    2
    21    31    26    1
    22     2     7    1
    23     2     3    1
    24     2     1    1
    25     4     3    1
    26     4     6    1
    27     7     9   am
    28    30    29    1
    29    26    27    1
    30    26    25    1
    31    29    27    1
    32    27    28    1
    33     9    10    1
    34    16    15    2
    35    25    23   am
    36    10    15    1
    37    10    11    1
    38    15    17   am
    39    23    24    2
    40    23    18    1
    41    17    18    1
    42    13    12   ar
    43    11    12    1
    44    12    14   ar
    45    18    19    1
    46    19    20    1
    47    19    21    1
    48    21    22    1
