@<TRIPOS>MOLECULE
11672244
 106 111 0 0 0
SMALL
GASTEIGER

@<TRIPOS>ATOM
      1 O          -5.4349    3.0756   -1.6357 O.3     1  LIG11      -0.4607
      2 O          -6.4616    6.8225    4.5162 O.2     1  LIG11      -0.2968
      3 O          -7.1684   -3.0299   -0.3007 O.co2   1  LIG11      -0.5492
      4 O          -5.3205   -3.4999   -1.5294 O.co2   1  LIG11      -0.5492
      5 O          -4.5920    2.3070   -3.6417 O.2     1  LIG11      -0.2456
      6 O          -3.3143    9.4159   -5.3430 O.3     1  LIG11      -0.5067
      7 O          -7.7994    5.0477   -3.3248 O.2     1  LIG11      -0.2705
      8 O         -11.8931    3.8655   -6.0689 O.co2   1  LIG11      -0.5452
      9 O         -10.8314    2.0644   -6.9934 O.co2   1  LIG11      -0.5452
     10 N          -7.7330    6.0233   -5.4534 N.am    1  LIG11      -0.2815
     11 C          -5.8432    1.2893    0.9702 C.3     1  LIG11      -0.0160
     12 C          -7.0675    2.0792    1.5666 C.3     1  LIG11      -0.0256
     13 C          -6.2145    0.8690   -0.5750 C.3     1  LIG11       0.0318
     14 C          -6.8334    2.9088    2.9125 C.3     1  LIG11      -0.0243
     15 C          -5.5325    3.7636    2.7214 C.3     1  LIG11      -0.0235
     16 C          -4.5471    2.1383    1.0615 C.3     1  LIG11      -0.0461
     17 C          -7.5779    0.1221   -0.6011 C.2     1  LIG11      -0.0596
     18 C          -7.8735   -0.7244   -1.8575 C.3     1  LIG11      -0.0080
     19 C          -4.3343    2.8469    2.3998 C.3     1  LIG11      -0.0483
     20 C          -5.0750   -0.0240   -1.1560 C.3     1  LIG11      -0.0392
     21 C          -8.3245    1.1801    1.5822 C.3     1  LIG11      -0.0306
     22 C          -6.7095   -1.6674   -2.2418 C.3     1  LIG11       0.0167
     23 C          -5.2361    4.8522    3.8077 C.3     1  LIG11       0.0267
     24 C          -8.0131    3.9116    3.0744 C.3     1  LIG11      -0.0404
     25 C          -5.4338   -0.8084   -2.4207 C.3     1  LIG11      -0.0408
     26 C          -5.5722   -0.0043    1.8100 C.3     1  LIG11      -0.0584
     27 C          -8.4837    0.2980    0.3823 C.2     1  LIG11      -0.0835
     28 C          -6.4615    2.0796   -1.5546 C.3     1  LIG11       0.1025
     29 C          -6.7946    2.0156    4.1764 C.3     1  LIG11      -0.0590
     30 C          -9.2579   -1.4200   -1.9161 C.3     1  LIG11      -0.0405
     31 C          -7.0155   -2.3529   -3.5993 C.3     1  LIG11      -0.0412
     32 C          -7.8323    4.9166    4.2018 C.3     1  LIG11       0.0069
     33 C          -9.5476   -2.1257   -3.2612 C.3     1  LIG11      -0.0343
     34 C          -6.5117    5.6458    4.1448 C.2     1  LIG11       0.1392
     35 C          -8.3747   -3.0533   -3.6322 C.3     1  LIG11      -0.0470
     36 C          -4.6477    4.3128    5.1199 C.3     1  LIG11      -0.0528
     37 C          -4.2146    5.8718    3.2348 C.3     1  LIG11      -0.0528
     38 C          -6.3692   -2.8380   -1.2592 C.2     1  LIG11       0.0485
     39 C         -10.8270   -2.9719   -3.1137 C.3     1  LIG11      -0.0598
     40 C          -9.8034   -1.0899   -4.3781 C.3     1  LIG11      -0.0598
     41 C          -4.8623    3.1970   -2.8534 C.2     1  LIG11       0.3320
     42 C          -4.7680    4.6377   -3.1523 C.2     1  LIG11       0.0231
     43 C          -5.1127    5.0004   -4.3979 C.2     1  LIG11      -0.0460
     44 C          -5.3408    6.3901   -4.8063 C.ar    1  LIG11      -0.0001
     45 C          -6.5602    6.8106   -5.3790 C.ar    1  LIG11       0.0411
     46 C          -4.2464    7.2730   -4.7850 C.ar    1  LIG11      -0.0113
     47 C          -6.6386    8.0826   -5.9674 C.ar    1  LIG11      -0.0364
     48 C          -4.3636    8.5442   -5.3388 C.ar    1  LIG11       0.1175
     49 C          -5.5480    8.9533   -5.9334 C.ar    1  LIG11      -0.0184
     50 C          -8.2235    5.1930   -4.4615 C.2     1  LIG11       0.2411
     51 C          -9.5164    4.6051   -4.8698 C.2     1  LIG11       0.0021
     52 C          -9.5650    3.5979   -5.7566 C.2     1  LIG11      -0.0344
     53 C         -10.9023    3.1165   -6.3016 C.2     1  LIG11       0.0647
     54 H          -2.5590    8.9779   -4.9150 H       1  LIG11       0.2921
     55 H          -8.4119    6.2613   -6.1637 H       1  LIG11       0.1551
     56 H          -7.2827    2.8639    0.8284 H       1  LIG11       0.0315
     57 H          -5.7136    4.3472    1.8028 H       1  LIG11       0.0315
     58 H          -4.5370    2.9299    0.3170 H       1  LIG11       0.0271
     59 H          -3.6671    1.5202    0.8448 H       1  LIG11       0.0271
     60 H          -7.9346    0.0240   -2.6594 H       1  LIG11       0.0355
     61 H          -4.1471    2.1188    3.1934 H       1  LIG11       0.0269
     62 H          -3.4125    3.4299    2.3100 H       1  LIG11       0.0269
     63 H          -4.7483   -0.7690   -0.4275 H       1  LIG11       0.0275
     64 H          -4.1914    0.5909   -1.3641 H       1  LIG11       0.0275
     65 H          -8.3357    0.5182    2.4518 H       1  LIG11       0.0310
     66 H          -9.2192    1.8091    1.6515 H       1  LIG11       0.0310
     67 H          -8.9519    3.3722    3.2472 H       1  LIG11       0.0275
     68 H          -8.1451    4.4724    2.1392 H       1  LIG11       0.0275
     69 H          -4.5734   -1.4287   -2.7023 H       1  LIG11       0.0275
     70 H          -5.5709   -0.1125   -3.2560 H       1  LIG11       0.0275
     71 H          -5.5445    0.1842    2.8797 H       1  LIG11       0.0235
     72 H          -4.5962   -0.4432    1.5779 H       1  LIG11       0.0235
     73 H          -6.3206   -0.7848    1.6490 H       1  LIG11       0.0235
     74 H          -9.4271   -0.2387    0.3498 H       1  LIG11       0.0572
     75 H          -6.7022    1.7252   -2.5639 H       1  LIG11       0.0706
     76 H          -7.3629    2.6254   -1.2516 H       1  LIG11       0.0706
     77 H          -5.8279    1.5394    4.3391 H       1  LIG11       0.0235
     78 H          -7.5539    1.2320    4.1613 H       1  LIG11       0.0235
     79 H          -7.0004    2.5723    5.0921 H       1  LIG11       0.0235
     80 H         -10.0484   -0.6763   -1.7448 H       1  LIG11       0.0276
     81 H          -9.3447   -2.1464   -1.0996 H       1  LIG11       0.0276
     82 H          -6.2406   -3.0855   -3.8579 H       1  LIG11       0.0274
     83 H          -6.9837   -1.6063   -4.4038 H       1  LIG11       0.0274
     84 H          -7.9220    4.4493    5.1868 H       1  LIG11       0.0342
     85 H          -8.6338    5.6620    4.1332 H       1  LIG11       0.0342
     86 H          -8.3479   -3.9086   -2.9457 H       1  LIG11       0.0271
     87 H          -8.5324   -3.4742   -4.6339 H       1  LIG11       0.0271
     88 H          -5.3519    3.6997    5.6826 H       1  LIG11       0.0239
     89 H          -4.3753    5.1384    5.7894 H       1  LIG11       0.0239
     90 H          -3.7405    3.7250    4.9486 H       1  LIG11       0.0239
     91 H          -4.5827    6.3199    2.3045 H       1  LIG11       0.0239
     92 H          -3.2417    5.4153    3.0321 H       1  LIG11       0.0239
     93 H          -4.0310    6.6962    3.9346 H       1  LIG11       0.0239
     94 H         -10.7136   -3.7344   -2.3357 H       1  LIG11       0.0235
     95 H         -11.0722   -3.4865   -4.0501 H       1  LIG11       0.0235
     96 H         -11.6857   -2.3463   -2.8424 H       1  LIG11       0.0235
     97 H          -8.9395   -0.4468   -4.5652 H       1  LIG11       0.0235
     98 H         -10.6462   -0.4377   -4.1208 H       1  LIG11       0.0235
     99 H         -10.0486   -1.5871   -5.3235 H       1  LIG11       0.0235
    100 H          -4.6318    5.3289   -2.3389 H       1  LIG11       0.0689
    101 H          -5.3695    4.2487   -5.1439 H       1  LIG11       0.0626
    102 H          -3.2996    6.9384   -4.3709 H       1  LIG11       0.0660
    103 H          -7.5649    8.4214   -6.4250 H       1  LIG11       0.0637
    104 H          -5.6263    9.9440   -6.3706 H       1  LIG11       0.0655
    105 H         -10.4109    5.0757   -4.4795 H       1  LIG11       0.0670
    106 H          -8.6674    3.1089   -6.1193 H       1  LIG11       0.0637
@<TRIPOS>BOND
     1     1    41    1
     2     1    28    1
     3     2    34    2
     4     3    38   ar
     5     4    38   ar
     6     5    41    2
     7     6    48    1
     8     7    50    2
     9     8    53   ar
    10     9    53   ar
    11    10    45    1
    12    10    50   am
    13    11    16    1
    14    11    12    1
    15    11    26    1
    16    11    13    1
    17    12    14    1
    18    13    20    1
    19    13    17    1
    20    13    28    1
    21    14    15    1
    22    14    24    1
    23    14    29    1
    24    15    19    1
    25    15    23    1
    26    16    19    1
    27    17    18    1
    28    17    27    2
    29    18    30    1
    30    18    22    1
    31    20    25    1
    32    21    27    1
    33    21    12    1
    34    22    31    1
    35    22    25    1
    36    22    38    1
    37    23    34    1
    38    23    37    1
    39    23    36    1
    40    24    32    1
    41    30    33    1
    42    31    35    1
    43    32    34    1
    44    33    35    1
    45    33    40    1
    46    33    39    1
    47    41    42    1
    48    42    43    2
    49    43    44    1
    50    44    46   ar
    51    44    45   ar
    52    45    47   ar
    53    46    48   ar
    54    47    49   ar
    55    48    49   ar
    56    50    51    1
    57    51    52    2
    58    52    53    1
    59     6    54    1
    60    10    55    1
    61    12    56    1
    62    15    57    1
    63    16    58    1
    64    16    59    1
    65    18    60    1
    66    19    61    1
    67    19    62    1
    68    20    63    1
    69    20    64    1
    70    21    65    1
    71    21    66    1
    72    24    67    1
    73    24    68    1
    74    25    69    1
    75    25    70    1
    76    26    71    1
    77    26    72    1
    78    26    73    1
    79    27    74    1
    80    28    75    1
    81    28    76    1
    82    29    77    1
    83    29    78    1
    84    29    79    1
    85    30    80    1
    86    30    81    1
    87    31    82    1
    88    31    83    1
    89    32    84    1
    90    32    85    1
    91    35    86    1
    92    35    87    1
    93    36    88    1
    94    36    89    1
    95    36    90    1
    96    37    91    1
    97    37    92    1
    98    37    93    1
    99    39    94    1
   100    39    95    1
   101    39    96    1
   102    40    97    1
   103    40    98    1
   104    40    99    1
   105    42   100    1
   106    43   101    1
   107    46   102    1
   108    47   103    1
   109    49   104    1
   110    51   105    1
   111    52   106    1
@<TRIPOS>MOLECULE
../1EDN/PCA1_17-21.pdb
 47 48 0 0 0
SMALL
GASTEIGER

@<TRIPOS>ATOM
      1  N         -4.6470   -0.3680   -1.6750 N.3    17  LEU17      -0.1231
      2  CA        -5.8920   -0.8550   -2.2480 C.3    17  LEU17       0.1693
      3  CB        -6.0770   -2.3450   -1.7480 C.3    17  LEU17       0.0284
      4  CG        -7.4170   -3.0590   -2.1890 C.3    17  LEU17       0.0019
      5  CD1       -7.4920   -3.1930   -3.7220 C.3    17  LEU17       0.0001
      6  CD2       -7.5340   -4.4610   -1.6100 C.3    17  LEU17       0.0001
      7  C         -7.0080    0.1010   -1.8270 C.2    17  LEU17       0.2592
      8  O         -7.6220    0.6590   -2.7680 O.2    17  LEU17      -0.2718
      9  N         -7.2890    0.1920   -0.5460 N.am   18  ASP18      -0.1960
     10  CA        -8.2730    1.1070    0.1120 C.3    18  ASP18       0.1840
     11  CB        -8.8290    0.4520    1.4200 C.3    18  ASP18       0.1450
     12  CG        -9.9140    1.2760    2.0640 C.2    18  ASP18       0.3671
     13  OD1      -10.8560    1.7240    1.3430 O.co2  18  ASP18      -0.2456
     14  OD2       -9.7710    1.5960    3.2830 O.co2  18  ASP18      -0.2456
     15  C         -7.6270    2.4530    0.4740 C.2    18  ASP18       0.2622
     16  O         -8.0770    3.4620   -0.0480 O.2    18  ASP18      -0.2715
     17  N         -6.6010    2.4770    1.3340 N.am   19  ILE19      -0.1963
     18  CA        -6.1660    3.6270    2.0790 C.3    19  ILE19       0.1727
     19  CB        -5.0730    3.3500    3.1520 C.3    19  ILE19       0.0290
     20  CG2       -4.5850    4.5470    3.9530 C.3    19  ILE19       0.0023
     21  CG1       -5.6210    2.1420    3.9730 C.3    19  ILE19       0.0022
     22  CD1       -6.7460    2.5740    4.8760 C.3    19  ILE19       0.0001
     23  C         -5.6740    4.7260    1.1170 C.2    19  ILE19       0.2616
     24  O         -5.9640    5.8590    1.4260 O.2    19  ILE19      -0.2715
     25  N         -4.8940    4.3400    0.1060 N.am   20  ILE20      -0.1963
     26  CA        -4.3700    5.1770   -0.9560 C.3    20  ILE20       0.1727
     27  CB        -2.8480    5.4620   -0.8180 C.3    20  ILE20       0.0290
     28  CG2       -2.5210    6.1670    0.5290 C.3    20  ILE20       0.0023
     29  CG1       -1.9270    4.2500   -0.9510 C.3    20  ILE20       0.0022
     30  CD1       -0.4520    4.4090   -1.0350 C.3    20  ILE20       0.0001
     31  C         -4.8260    4.7960   -2.3980 C.2    20  ILE20       0.2617
     32  O         -4.8210    3.6210   -2.7490 O.2    20  ILE20      -0.2715
     33  N         -5.1950    5.7710   -3.1960 N.am   21  TRP21      -0.1941
     34  CA        -5.6960    5.8160   -4.5740 C.3    21  TRP21       0.1982
     35  CB        -7.1930    6.0870   -4.6010 C.3    21  TRP21       0.0394
     36  CG        -8.1480    4.9210   -4.3560 C.3    21  TRP21       0.0475
     37  CD1       -8.4270    4.3170   -3.1580 C.3    21  TRP21       0.1166
     38  NE1       -9.4680    3.4340   -3.3480 N.pl3  21  TRP21      -0.2376
     39  CE2      -10.0400    3.5420   -4.5600 C.ar   21  TRP21       0.0614
     40  CZ2      -11.2420    2.9770   -5.0990 C.ar   21  TRP21       0.0158
     41  CH2      -11.3060    3.0240   -6.5170 C.ar   21  TRP21       0.0013
     42  CZ3      -10.3640    3.7270   -7.2650 C.ar   21  TRP21      -0.0002
     43  CE3       -9.2810    4.3830   -6.7050 C.ar   21  TRP21      -0.0030
     44  CD2       -9.0950    4.3440   -5.3390 C.ar   21  TRP21      -0.0059
     45  C         -4.8510    6.8160   -5.3910 C.2    21  TRP21       0.3842
     46  O         -5.0400    8.0490   -5.1500 O.co2  21  TRP21      -0.2437
     47  OXT       -3.9720    6.3760   -6.1010 O.co2  21  TRP21      -0.2437
@<TRIPOS>BOND
     1    42    43   ar
     2    42    41   ar
     3    43    44   ar
     4    41    40   ar
     5    47    45   ar
     6    45    46   ar
     7    45    34    1
     8    44    39   ar
     9    44    36    1
    10    40    39   ar
    11    35    34    1
    12    35    36    1
    13    34    33    1
    14    39    38    1
    15    36    37    1
    16     5     4    1
    17    38    37    1
    18    33    31   am
    19     8     7    2
    20    32    31    2
    21    31    26    1
    22     2     7    1
    23     2     3    1
    24     2     1    1
    25     4     3    1
    26     4     6    1
    27     7     9   am
    28    30    29    1
    29    26    27    1
    30    26    25    1
    31    29    27    1
    32    27    28    1
    33     9    10    1
    34    16    15    2
    35    25    23   am
    36    10    15    1
    37    10    11    1
    38    15    17   am
    39    23    24    2
    40    23    18    1
    41    17    18    1
    42    13    12   ar
    43    11    12    1
    44    12    14   ar
    45    18    19    1
    46    19    20    1
    47    19    21    1
    48    21    22    1
