@<TRIPOS>MOLECULE
*****
 43 45 0 0 0
SMALL
GASTEIGER

@<TRIPOS>ATOM
      1 BR         -7.5954   -2.3562   -2.3837 Br      1  LIG11      -0.0503
      2 BR        -10.9075    2.5510   -5.4037 Br      1  LIG11      -0.0472
      3 S          -5.8125    3.0471    2.9323 S.O2    1  LIG11       0.1079
      4 O          -4.9389    3.8549   -3.0859 O.3     1  LIG11      -0.4724
      5 O          -6.2286    1.7951    3.5118 O.2     1  LIG11      -0.1383
      6 O          -6.0087    4.2965    3.6211 O.2     1  LIG11      -0.1383
      7 O          -6.6316    6.1383   -3.3772 O.3     1  LIG11      -0.4590
      8 N          -4.1751    2.9268    2.6351 N.3     1  LIG11      -0.1906
      9 N          -6.4469    3.1482    1.4034 N.pl3   1  LIG11      -0.1891
     10 N          -5.3343    5.0905    0.7790 N.ar    1  LIG11      -0.2186
     11 N          -4.5102    5.4290   -1.4202 N.ar    1  LIG11      -0.2008
     12 N          -8.5884    5.0229   -3.0458 N.ar    1  LIG11      -0.2022
     13 N          -7.4989    4.8883   -5.1683 N.ar    1  LIG11      -0.2022
     14 C          -5.6142    3.3306   -0.8764 C.ar    1  LIG11       0.0848
     15 C          -5.7207    3.8574    0.4085 C.ar    1  LIG11       0.1532
     16 C          -6.0836    1.9697   -1.2479 C.ar    1  LIG11      -0.0094
     17 C          -5.0051    4.2197   -1.7583 C.ar    1  LIG11       0.2276
     18 C          -5.7952    0.8511   -0.4405 C.ar    1  LIG11      -0.0527
     19 C          -6.8301    1.7310   -2.4159 C.ar    1  LIG11      -0.0527
     20 C          -4.5526    4.8625   -4.0203 C.3     1  LIG11       0.1252
     21 C          -6.2506   -0.4317   -0.7677 C.ar    1  LIG11      -0.0472
     22 C          -7.2743    0.4492   -2.7610 C.ar    1  LIG11      -0.0472
     23 C          -4.7289    5.8149   -0.1633 C.ar    1  LIG11       0.1219
     24 C          -5.3961    6.1533   -4.0837 C.3     1  LIG11       0.1267
     25 C          -6.9870   -0.6265   -1.9296 C.ar    1  LIG11       0.0179
     26 C          -7.5989    5.3248   -3.9023 C.ar    1  LIG11       0.3180
     27 C          -9.5553    4.2089   -3.5152 C.ar    1  LIG11       0.0483
     28 C          -8.4991    4.0810   -5.5870 C.ar    1  LIG11       0.0483
     29 C          -9.5583    3.7018   -4.7926 C.ar    1  LIG11       0.0543
     30 H          -3.8410    3.8638    2.3943 H       1  LIG11       0.1456
     31 H          -3.7139    2.5979    3.4835 H       1  LIG11       0.1456
     32 H          -7.4065    3.4835    1.4637 H       1  LIG11       0.1763
     33 H          -5.2083    0.9623    0.4706 H       1  LIG11       0.0624
     34 H          -7.0734    2.5498   -3.0857 H       1  LIG11       0.0624
     35 H          -3.4881    5.1005   -3.8960 H       1  LIG11       0.0731
     36 H          -4.6174    4.3820   -5.0044 H       1  LIG11       0.0731
     37 H          -6.0217   -1.2633   -0.1061 H       1  LIG11       0.0629
     38 H          -7.8392    0.3068   -3.6781 H       1  LIG11       0.0629
     39 H          -4.3907    6.8071    0.1155 H       1  LIG11       0.1049
     40 H          -5.5310    6.4845   -5.1219 H       1  LIG11       0.0732
     41 H          -4.8037    6.9549   -3.6245 H       1  LIG11       0.0732
     42 H         -10.3373    3.9697   -2.8005 H       1  LIG11       0.0843
     43 H          -8.4093    3.7379   -6.6136 H       1  LIG11       0.0843
@<TRIPOS>BOND
     1     1    25    1
     2     2    29    1
     3     3     9    1
     4     3     8    1
     5     3     6    2
     6     3     5    2
     7     4    17    1
     8     4    20    1
     9     7    24    1
    10     7    26    1
    11     9    15    1
    12    10    15   ar
    13    10    23   ar
    14    11    17   ar
    15    11    23   ar
    16    12    26   ar
    17    12    27   ar
    18    13    26   ar
    19    13    28   ar
    20    14    15   ar
    21    14    17   ar
    22    16    18   ar
    23    16    19   ar
    24    16    14    1
    25    18    21   ar
    26    19    22   ar
    27    20    24    1
    28    21    25   ar
    29    22    25   ar
    30    27    29   ar
    31    28    29   ar
    32     8    30    1
    33     8    31    1
    34     9    32    1
    35    18    33    1
    36    19    34    1
    37    20    35    1
    38    20    36    1
    39    21    37    1
    40    22    38    1
    41    23    39    1
    42    24    40    1
    43    24    41    1
    44    27    42    1
    45    28    43    1
@<TRIPOS>MOLECULE
../1EDN/PCA1_17-21.pdb
 47 48 0 0 0
SMALL
GASTEIGER

@<TRIPOS>ATOM
      1  N         -4.6470   -0.3680   -1.6750 N.3    17  LEU17      -0.1231
      2  CA        -5.8920   -0.8550   -2.2480 C.3    17  LEU17       0.1693
      3  CB        -6.0770   -2.3450   -1.7480 C.3    17  LEU17       0.0284
      4  CG        -7.4170   -3.0590   -2.1890 C.3    17  LEU17       0.0019
      5  CD1       -7.4920   -3.1930   -3.7220 C.3    17  LEU17       0.0001
      6  CD2       -7.5340   -4.4610   -1.6100 C.3    17  LEU17       0.0001
      7  C         -7.0080    0.1010   -1.8270 C.2    17  LEU17       0.2592
      8  O         -7.6220    0.6590   -2.7680 O.2    17  LEU17      -0.2718
      9  N         -7.2890    0.1920   -0.5460 N.am   18  ASP18      -0.1960
     10  CA        -8.2730    1.1070    0.1120 C.3    18  ASP18       0.1840
     11  CB        -8.8290    0.4520    1.4200 C.3    18  ASP18       0.1450
     12  CG        -9.9140    1.2760    2.0640 C.2    18  ASP18       0.3671
     13  OD1      -10.8560    1.7240    1.3430 O.co2  18  ASP18      -0.2456
     14  OD2       -9.7710    1.5960    3.2830 O.co2  18  ASP18      -0.2456
     15  C         -7.6270    2.4530    0.4740 C.2    18  ASP18       0.2622
     16  O         -8.0770    3.4620   -0.0480 O.2    18  ASP18      -0.2715
     17  N         -6.6010    2.4770    1.3340 N.am   19  ILE19      -0.1963
     18  CA        -6.1660    3.6270    2.0790 C.3    19  ILE19       0.1727
     19  CB        -5.0730    3.3500    3.1520 C.3    19  ILE19       0.0290
     20  CG2       -4.5850    4.5470    3.9530 C.3    19  ILE19       0.0023
     21  CG1       -5.6210    2.1420    3.9730 C.3    19  ILE19       0.0022
     22  CD1       -6.7460    2.5740    4.8760 C.3    19  ILE19       0.0001
     23  C         -5.6740    4.7260    1.1170 C.2    19  ILE19       0.2616
     24  O         -5.9640    5.8590    1.4260 O.2    19  ILE19      -0.2715
     25  N         -4.8940    4.3400    0.1060 N.am   20  ILE20      -0.1963
     26  CA        -4.3700    5.1770   -0.9560 C.3    20  ILE20       0.1727
     27  CB        -2.8480    5.4620   -0.8180 C.3    20  ILE20       0.0290
     28  CG2       -2.5210    6.1670    0.5290 C.3    20  ILE20       0.0023
     29  CG1       -1.9270    4.2500   -0.9510 C.3    20  ILE20       0.0022
     30  CD1       -0.4520    4.4090   -1.0350 C.3    20  ILE20       0.0001
     31  C         -4.8260    4.7960   -2.3980 C.2    20  ILE20       0.2617
     32  O         -4.8210    3.6210   -2.7490 O.2    20  ILE20      -0.2715
     33  N         -5.1950    5.7710   -3.1960 N.am   21  TRP21      -0.1941
     34  CA        -5.6960    5.8160   -4.5740 C.3    21  TRP21       0.1982
     35  CB        -7.1930    6.0870   -4.6010 C.3    21  TRP21       0.0394
     36  CG        -8.1480    4.9210   -4.3560 C.3    21  TRP21       0.0475
     37  CD1       -8.4270    4.3170   -3.1580 C.3    21  TRP21       0.1166
     38  NE1       -9.4680    3.4340   -3.3480 N.pl3  21  TRP21      -0.2376
     39  CE2      -10.0400    3.5420   -4.5600 C.ar   21  TRP21       0.0614
     40  CZ2      -11.2420    2.9770   -5.0990 C.ar   21  TRP21       0.0158
     41  CH2      -11.3060    3.0240   -6.5170 C.ar   21  TRP21       0.0013
     42  CZ3      -10.3640    3.7270   -7.2650 C.ar   21  TRP21      -0.0002
     43  CE3       -9.2810    4.3830   -6.7050 C.ar   21  TRP21      -0.0030
     44  CD2       -9.0950    4.3440   -5.3390 C.ar   21  TRP21      -0.0059
     45  C         -4.8510    6.8160   -5.3910 C.2    21  TRP21       0.3842
     46  O         -5.0400    8.0490   -5.1500 O.co2  21  TRP21      -0.2437
     47  OXT       -3.9720    6.3760   -6.1010 O.co2  21  TRP21      -0.2437
@<TRIPOS>BOND
     1    42    43   ar
     2    42    41   ar
     3    43    44   ar
     4    41    40   ar
     5    47    45   ar
     6    45    46   ar
     7    45    34    1
     8    44    39   ar
     9    44    36    1
    10    40    39   ar
    11    35    34    1
    12    35    36    1
    13    34    33    1
    14    39    38    1
    15    36    37    1
    16     5     4    1
    17    38    37    1
    18    33    31   am
    19     8     7    2
    20    32    31    2
    21    31    26    1
    22     2     7    1
    23     2     3    1
    24     2     1    1
    25     4     3    1
    26     4     6    1
    27     7     9   am
    28    30    29    1
    29    26    27    1
    30    26    25    1
    31    29    27    1
    32    27    28    1
    33     9    10    1
    34    16    15    2
    35    25    23   am
    36    10    15    1
    37    10    11    1
    38    15    17   am
    39    23    24    2
    40    23    18    1
    41    17    18    1
    42    13    12   ar
    43    11    12    1
    44    12    14   ar
    45    18    19    1
    46    19    20    1
    47    19    21    1
    48    21    22    1
