@<TRIPOS>MOLECULE
159594
 75 78 0 0 0
SMALL
GASTEIGER

@<TRIPOS>ATOM
      1 O         -10.2249    1.6356    1.8785 O.co2   1  LIG11      -0.5493
      2 O          -9.4907   -0.4741    1.4183 O.co2   1  LIG11      -0.5493
      3 O          -5.2377    5.7073    4.4603 O.3     1  LIG11      -0.4526
      4 O          -6.4523    4.5384   -2.3189 O.2     1  LIG11      -0.2697
      5 O          -3.1805    4.4975    4.1144 O.3     1  LIG11      -0.4526
      6 O          -6.1091   -3.4476   -2.9179 O.3     1  LIG11      -0.4951
      7 N          -7.6771    2.4962   -0.9826 N.4     1  LIG11       0.2481
      8 N          -7.7042    4.5038   -4.2530 N.am    1  LIG11      -0.2971
      9 C          -8.0290    1.3367    1.0877 C.3     1  LIG11       0.0574
     10 C          -7.8435    2.8274    1.3923 C.3     1  LIG11       0.0378
     11 C          -8.2703    1.2081   -0.4190 C.3     1  LIG11       0.0143
     12 C          -8.0516    3.5337    0.0509 C.3     1  LIG11      -0.0230
     13 C          -6.5250    3.2312    2.0458 C.ar    1  LIG11      -0.0347
     14 C          -7.6831   -0.0183   -1.0967 C.ar    1  LIG11       0.0011
     15 C          -8.1199    2.8273   -2.4021 C.3     1  LIG11       0.0468
     16 C          -9.3763    0.7772    1.5505 C.2     1  LIG11       0.0513
     17 C          -6.5407    4.3362    2.9243 C.ar    1  LIG11      -0.0125
     18 C          -7.3546    4.0261   -2.9846 C.2     1  LIG11       0.2608
     19 C          -5.3068    2.5527    1.8339 C.ar    1  LIG11      -0.0544
     20 C          -8.5469   -0.9011   -1.7673 C.ar    1  LIG11      -0.0498
     21 C          -6.3178   -0.3265   -1.0703 C.ar    1  LIG11      -0.0498
     22 C          -5.3757    4.6911    3.5695 C.ar    1  LIG11       0.1665
     23 C          -4.1362    2.9369    2.5041 C.ar    1  LIG11      -0.0159
     24 C          -4.2050    4.0046    3.3687 C.ar    1  LIG11       0.1662
     25 C          -8.0653   -2.0529   -2.3966 C.ar    1  LIG11      -0.0195
     26 C          -5.8387   -1.4827   -1.6959 C.ar    1  LIG11      -0.0195
     27 C          -6.9984    5.6995   -4.7387 C.3     1  LIG11       0.0148
     28 C          -8.7152    3.8714   -5.1185 C.3     1  LIG11       0.0148
     29 C          -6.7063   -2.3515   -2.3595 C.ar    1  LIG11       0.1201
     30 C          -5.4917    5.5840   -4.9677 C.3     1  LIG11      -0.0374
     31 C          -9.6337    4.7844   -5.9491 C.3     1  LIG11      -0.0374
     32 C          -3.8519    5.5574    4.8281 C.3     1  LIG11       0.2332
     33 C          -4.9252    6.8746   -5.5840 C.3     1  LIG11      -0.0545
     34 C         -10.6072    5.6828   -5.1788 C.3     1  LIG11      -0.0545
     35 C          -5.2481    8.1333   -4.7853 C.3     1  LIG11      -0.0652
     36 C          -9.9830    6.7725   -4.3269 C.3     1  LIG11      -0.0652
     37 C          -6.9720   -4.4155   -3.5046 C.3     1  LIG11       0.0788
     38 H          -6.6527    2.4379   -0.9873 H       1  LIG11       0.2045
     39 H          -7.2336    0.6957    1.4784 H       1  LIG11       0.0427
     40 H          -8.6124    3.1971    2.0814 H       1  LIG11       0.0409
     41 H          -9.3352    1.2799   -0.6868 H       1  LIG11       0.0911
     42 H          -9.1056    3.7839   -0.1097 H       1  LIG11       0.0821
     43 H          -7.4291    4.4205   -0.0907 H       1  LIG11       0.0821
     44 H          -9.1937    3.0322   -2.3627 H       1  LIG11       0.0913
     45 H          -7.9081    1.9481   -3.0182 H       1  LIG11       0.0913
     46 H          -7.4536    4.8891    3.1292 H       1  LIG11       0.0658
     47 H          -5.2467    1.6942    1.1773 H       1  LIG11       0.0622
     48 H          -9.6239   -0.7263   -1.7627 H       1  LIG11       0.0623
     49 H          -5.6067    0.2982   -0.5397 H       1  LIG11       0.0623
     50 H          -3.2059    2.3966    2.3639 H       1  LIG11       0.0655
     51 H          -8.7849   -2.7068   -2.8792 H       1  LIG11       0.0654
     52 H          -4.7800   -1.7242   -1.6436 H       1  LIG11       0.0654
     53 H          -7.1795    6.4702   -3.9849 H       1  LIG11       0.0464
     54 H          -7.4446    6.0409   -5.6707 H       1  LIG11       0.0464
     55 H          -9.3483    3.2051   -4.5259 H       1  LIG11       0.0464
     56 H          -8.1543    3.2279   -5.8050 H       1  LIG11       0.0464
     57 H          -5.2748    4.7416   -5.6331 H       1  LIG11       0.0280
     58 H          -4.9651    5.3853   -4.0274 H       1  LIG11       0.0280
     59 H         -10.2491    4.1209   -6.5748 H       1  LIG11       0.0280
     60 H          -9.0603    5.3833   -6.6652 H       1  LIG11       0.0280
     61 H          -3.7942    5.3500    5.9038 H       1  LIG11       0.1166
     62 H          -3.3316    6.4995    4.6234 H       1  LIG11       0.1166
     63 H          -5.3135    6.9954   -6.5994 H       1  LIG11       0.0263
     64 H          -3.8366    6.7781   -5.6662 H       1  LIG11       0.0263
     65 H         -11.2613    5.0692   -4.5548 H       1  LIG11       0.0263
     66 H         -11.2544    6.1769   -5.9200 H       1  LIG11       0.0263
     67 H          -6.3181    8.3656   -4.8113 H       1  LIG11       0.0230
     68 H          -4.7245    8.9995   -5.2090 H       1  LIG11       0.0230
     69 H          -4.9435    8.0305   -3.7365 H       1  LIG11       0.0230
     70 H          -9.4804    6.3563   -3.4516 H       1  LIG11       0.0230
     71 H         -10.7575    7.4519   -3.9570 H       1  LIG11       0.0230
     72 H          -9.2696    7.3742   -4.9041 H       1  LIG11       0.0230
     73 H          -6.3547   -5.2531   -3.8422 H       1  LIG11       0.0660
     74 H          -7.4814   -4.0019   -4.3811 H       1  LIG11       0.0660
     75 H          -7.6912   -4.8051   -2.7759 H       1  LIG11       0.0660
@<TRIPOS>BOND
     1     1    16   ar
     2     2    16   ar
     3     3    22    1
     4     3    32    1
     5     4    18    2
     6     5    24    1
     7     5    32    1
     8     6    29    1
     9     6    37    1
    10     7    11    1
    11     7    12    1
    12     7    15    1
    13     8    18   am
    14     8    27    1
    15     8    28    1
    16     9    10    1
    17     9    11    1
    18     9    16    1
    19    10    12    1
    20    10    13    1
    21    11    14    1
    22    13    17   ar
    23    13    19   ar
    24    14    20   ar
    25    14    21   ar
    26    15    18    1
    27    17    22   ar
    28    19    23   ar
    29    20    25   ar
    30    21    26   ar
    31    22    24   ar
    32    23    24   ar
    33    25    29   ar
    34    26    29   ar
    35    27    30    1
    36    28    31    1
    37    30    33    1
    38    31    34    1
    39    33    35    1
    40    34    36    1
    41     7    38    1
    42     9    39    1
    43    10    40    1
    44    11    41    1
    45    12    42    1
    46    12    43    1
    47    15    44    1
    48    15    45    1
    49    17    46    1
    50    19    47    1
    51    20    48    1
    52    21    49    1
    53    23    50    1
    54    25    51    1
    55    26    52    1
    56    27    53    1
    57    27    54    1
    58    28    55    1
    59    28    56    1
    60    30    57    1
    61    30    58    1
    62    31    59    1
    63    31    60    1
    64    32    61    1
    65    32    62    1
    66    33    63    1
    67    33    64    1
    68    34    65    1
    69    34    66    1
    70    35    67    1
    71    35    68    1
    72    35    69    1
    73    36    70    1
    74    36    71    1
    75    36    72    1
    76    37    73    1
    77    37    74    1
    78    37    75    1
@<TRIPOS>MOLECULE
../1EDN/PCA1_17-21.pdb
 47 48 0 0 0
SMALL
GASTEIGER

@<TRIPOS>ATOM
      1  N         -4.6470   -0.3680   -1.6750 N.3    17  LEU17      -0.1231
      2  CA        -5.8920   -0.8550   -2.2480 C.3    17  LEU17       0.1693
      3  CB        -6.0770   -2.3450   -1.7480 C.3    17  LEU17       0.0284
      4  CG        -7.4170   -3.0590   -2.1890 C.3    17  LEU17       0.0019
      5  CD1       -7.4920   -3.1930   -3.7220 C.3    17  LEU17       0.0001
      6  CD2       -7.5340   -4.4610   -1.6100 C.3    17  LEU17       0.0001
      7  C         -7.0080    0.1010   -1.8270 C.2    17  LEU17       0.2592
      8  O         -7.6220    0.6590   -2.7680 O.2    17  LEU17      -0.2718
      9  N         -7.2890    0.1920   -0.5460 N.am   18  ASP18      -0.1960
     10  CA        -8.2730    1.1070    0.1120 C.3    18  ASP18       0.1840
     11  CB        -8.8290    0.4520    1.4200 C.3    18  ASP18       0.1450
     12  CG        -9.9140    1.2760    2.0640 C.2    18  ASP18       0.3671
     13  OD1      -10.8560    1.7240    1.3430 O.co2  18  ASP18      -0.2456
     14  OD2       -9.7710    1.5960    3.2830 O.co2  18  ASP18      -0.2456
     15  C         -7.6270    2.4530    0.4740 C.2    18  ASP18       0.2622
     16  O         -8.0770    3.4620   -0.0480 O.2    18  ASP18      -0.2715
     17  N         -6.6010    2.4770    1.3340 N.am   19  ILE19      -0.1963
     18  CA        -6.1660    3.6270    2.0790 C.3    19  ILE19       0.1727
     19  CB        -5.0730    3.3500    3.1520 C.3    19  ILE19       0.0290
     20  CG2       -4.5850    4.5470    3.9530 C.3    19  ILE19       0.0023
     21  CG1       -5.6210    2.1420    3.9730 C.3    19  ILE19       0.0022
     22  CD1       -6.7460    2.5740    4.8760 C.3    19  ILE19       0.0001
     23  C         -5.6740    4.7260    1.1170 C.2    19  ILE19       0.2616
     24  O         -5.9640    5.8590    1.4260 O.2    19  ILE19      -0.2715
     25  N         -4.8940    4.3400    0.1060 N.am   20  ILE20      -0.1963
     26  CA        -4.3700    5.1770   -0.9560 C.3    20  ILE20       0.1727
     27  CB        -2.8480    5.4620   -0.8180 C.3    20  ILE20       0.0290
     28  CG2       -2.5210    6.1670    0.5290 C.3    20  ILE20       0.0023
     29  CG1       -1.9270    4.2500   -0.9510 C.3    20  ILE20       0.0022
     30  CD1       -0.4520    4.4090   -1.0350 C.3    20  ILE20       0.0001
     31  C         -4.8260    4.7960   -2.3980 C.2    20  ILE20       0.2617
     32  O         -4.8210    3.6210   -2.7490 O.2    20  ILE20      -0.2715
     33  N         -5.1950    5.7710   -3.1960 N.am   21  TRP21      -0.1941
     34  CA        -5.6960    5.8160   -4.5740 C.3    21  TRP21       0.1982
     35  CB        -7.1930    6.0870   -4.6010 C.3    21  TRP21       0.0394
     36  CG        -8.1480    4.9210   -4.3560 C.3    21  TRP21       0.0475
     37  CD1       -8.4270    4.3170   -3.1580 C.3    21  TRP21       0.1166
     38  NE1       -9.4680    3.4340   -3.3480 N.pl3  21  TRP21      -0.2376
     39  CE2      -10.0400    3.5420   -4.5600 C.ar   21  TRP21       0.0614
     40  CZ2      -11.2420    2.9770   -5.0990 C.ar   21  TRP21       0.0158
     41  CH2      -11.3060    3.0240   -6.5170 C.ar   21  TRP21       0.0013
     42  CZ3      -10.3640    3.7270   -7.2650 C.ar   21  TRP21      -0.0002
     43  CE3       -9.2810    4.3830   -6.7050 C.ar   21  TRP21      -0.0030
     44  CD2       -9.0950    4.3440   -5.3390 C.ar   21  TRP21      -0.0059
     45  C         -4.8510    6.8160   -5.3910 C.2    21  TRP21       0.3842
     46  O         -5.0400    8.0490   -5.1500 O.co2  21  TRP21      -0.2437
     47  OXT       -3.9720    6.3760   -6.1010 O.co2  21  TRP21      -0.2437
@<TRIPOS>BOND
     1    42    43   ar
     2    42    41   ar
     3    43    44   ar
     4    41    40   ar
     5    47    45   ar
     6    45    46   ar
     7    45    34    1
     8    44    39   ar
     9    44    36    1
    10    40    39   ar
    11    35    34    1
    12    35    36    1
    13    34    33    1
    14    39    38    1
    15    36    37    1
    16     5     4    1
    17    38    37    1
    18    33    31   am
    19     8     7    2
    20    32    31    2
    21    31    26    1
    22     2     7    1
    23     2     3    1
    24     2     1    1
    25     4     3    1
    26     4     6    1
    27     7     9   am
    28    30    29    1
    29    26    27    1
    30    26    25    1
    31    29    27    1
    32    27    28    1
    33     9    10    1
    34    16    15    2
    35    25    23   am
    36    10    15    1
    37    10    11    1
    38    15    17   am
    39    23    24    2
    40    23    18    1
    41    17    18    1
    42    13    12   ar
    43    11    12    1
    44    12    14   ar
    45    18    19    1
    46    19    20    1
    47    19    21    1
    48    21    22    1
