@<TRIPOS>MOLECULE
46174111
 44 47 0 0 0
SMALL
GASTEIGER

@<TRIPOS>ATOM
      1 CL         -9.1124    4.2248    1.1247 Cl      1  LIG11      -0.0762
      2 S          -5.2772    3.3592    1.1875 S.O2    1  LIG11       0.0758
      3 S          -3.2026    6.7117   -0.4522 S.2     1  LIG11      -0.0918
      4 O          -9.5498    3.7028   -3.2300 O.3     1  LIG11      -0.4526
      5 O          -9.7196    4.1446   -5.5955 O.3     1  LIG11      -0.4526
      6 O          -4.5977    3.5181   -1.9763 O.2     1  LIG11      -0.2911
      7 O          -4.2656    2.3307    1.2697 O.2     1  LIG11      -0.1499
      8 O          -6.0427    3.7844    2.3388 O.2     1  LIG11      -0.1499
      9 O          -7.4911    0.8391    0.1209 O.2     1  LIG11      -0.3364
     10 N          -6.3079    2.9802   -0.0916 N.pl3   1  LIG11      -0.1821
     11 N          -8.7248    0.3770    0.5507 N.ar    1  LIG11      -0.0798
     12 C          -6.2572    5.3107   -3.6612 C.ar    1  LIG11      -0.0333
     13 C          -5.0240    5.7206   -2.8692 C.3     1  LIG11       0.0366
     14 C          -6.3865    5.6221   -5.0463 C.ar    1  LIG11      -0.0432
     15 C          -4.3609    4.7814    0.7755 C.ar    1  LIG11       0.1261
     16 C          -4.1609    5.2854   -0.4986 C.ar    1  LIG11       0.0814
     17 C          -7.3389    4.6977   -2.9975 C.ar    1  LIG11      -0.0123
     18 C          -4.5865    4.7361   -1.7799 C.2     1  LIG11       0.1759
     19 C          -8.4503    4.3313   -3.7245 C.ar    1  LIG11       0.1665
     20 C          -8.5468    4.5840   -5.0669 C.ar    1  LIG11       0.1665
     21 C          -7.5425    5.2313   -5.7516 C.ar    1  LIG11      -0.0130
     22 C          -5.3057    6.3466   -5.8050 C.3     1  LIG11      -0.0393
     23 C          -3.7263    5.5790    1.7823 C.ar    1  LIG11      -0.0273
     24 C         -10.3357    3.5549   -4.4312 C.3     1  LIG11       0.2332
     25 C          -3.0662    6.6606    1.2478 C.ar    1  LIG11      -0.0217
     26 C          -7.4141    2.1835    0.3133 C.ar    1  LIG11       0.2554
     27 C          -8.6120    2.6326    0.8181 C.ar    1  LIG11       0.1262
     28 C          -9.3967    1.4645    0.9553 C.ar    1  LIG11       0.1009
     29 C         -10.7961    1.3448    1.4232 C.3     1  LIG11      -0.0176
     30 H          -5.7252    2.4812   -0.7810 H       1  LIG11       0.1768
     31 H          -5.2513    6.6999   -2.4345 H       1  LIG11       0.0394
     32 H          -4.1551    5.8300   -3.5272 H       1  LIG11       0.0394
     33 H          -7.3252    4.5006   -1.9332 H       1  LIG11       0.0658
     34 H          -7.6572    5.4353   -6.8114 H       1  LIG11       0.0658
     35 H          -4.9486    7.2128   -5.2389 H       1  LIG11       0.0278
     36 H          -4.4708    5.6699   -6.0096 H       1  LIG11       0.0278
     37 H          -5.6793    6.7297   -6.7611 H       1  LIG11       0.0278
     38 H          -3.7610    5.3646    2.8454 H       1  LIG11       0.0643
     39 H         -10.4914    2.4862   -4.6197 H       1  LIG11       0.1166
     40 H         -11.3104    4.0294   -4.2718 H       1  LIG11       0.1166
     41 H          -2.5060    7.4213    1.7758 H       1  LIG11       0.0694
     42 H         -11.0498    0.3090    1.6718 H       1  LIG11       0.0294
     43 H         -10.9617    1.9524    2.3186 H       1  LIG11       0.0294
     44 H         -11.4852    1.6855    0.6433 H       1  LIG11       0.0294
@<TRIPOS>BOND
     1     1    27    1
     2     2    10    1
     3     2    15    1
     4     2     8    2
     5     2     7    2
     6     3    16   ar
     7     3    25   ar
     8     4    24    1
     9     4    19    1
    10     5    20    1
    11     5    24    1
    12     6    18    2
    13     9    11   ar
    14     9    26   ar
    15    10    26    1
    16    11    28   ar
    17    12    17   ar
    18    12    14   ar
    19    13    18    1
    20    13    12    1
    21    14    21   ar
    22    14    22    1
    23    15    23   ar
    24    15    16   ar
    25    16    18    1
    26    17    19   ar
    27    19    20   ar
    28    20    21   ar
    29    23    25   ar
    30    26    27   ar
    31    27    28   ar
    32    28    29    1
    33    10    30    1
    34    13    31    1
    35    13    32    1
    36    17    33    1
    37    21    34    1
    38    22    35    1
    39    22    36    1
    40    22    37    1
    41    23    38    1
    42    24    39    1
    43    24    40    1
    44    25    41    1
    45    29    42    1
    46    29    43    1
    47    29    44    1
@<TRIPOS>MOLECULE
../1EDN/PCA1_17-21.pdb
 47 48 0 0 0
SMALL
GASTEIGER

@<TRIPOS>ATOM
      1  N         -4.6470   -0.3680   -1.6750 N.3    17  LEU17      -0.1231
      2  CA        -5.8920   -0.8550   -2.2480 C.3    17  LEU17       0.1693
      3  CB        -6.0770   -2.3450   -1.7480 C.3    17  LEU17       0.0284
      4  CG        -7.4170   -3.0590   -2.1890 C.3    17  LEU17       0.0019
      5  CD1       -7.4920   -3.1930   -3.7220 C.3    17  LEU17       0.0001
      6  CD2       -7.5340   -4.4610   -1.6100 C.3    17  LEU17       0.0001
      7  C         -7.0080    0.1010   -1.8270 C.2    17  LEU17       0.2592
      8  O         -7.6220    0.6590   -2.7680 O.2    17  LEU17      -0.2718
      9  N         -7.2890    0.1920   -0.5460 N.am   18  ASP18      -0.1960
     10  CA        -8.2730    1.1070    0.1120 C.3    18  ASP18       0.1840
     11  CB        -8.8290    0.4520    1.4200 C.3    18  ASP18       0.1450
     12  CG        -9.9140    1.2760    2.0640 C.2    18  ASP18       0.3671
     13  OD1      -10.8560    1.7240    1.3430 O.co2  18  ASP18      -0.2456
     14  OD2       -9.7710    1.5960    3.2830 O.co2  18  ASP18      -0.2456
     15  C         -7.6270    2.4530    0.4740 C.2    18  ASP18       0.2622
     16  O         -8.0770    3.4620   -0.0480 O.2    18  ASP18      -0.2715
     17  N         -6.6010    2.4770    1.3340 N.am   19  ILE19      -0.1963
     18  CA        -6.1660    3.6270    2.0790 C.3    19  ILE19       0.1727
     19  CB        -5.0730    3.3500    3.1520 C.3    19  ILE19       0.0290
     20  CG2       -4.5850    4.5470    3.9530 C.3    19  ILE19       0.0023
     21  CG1       -5.6210    2.1420    3.9730 C.3    19  ILE19       0.0022
     22  CD1       -6.7460    2.5740    4.8760 C.3    19  ILE19       0.0001
     23  C         -5.6740    4.7260    1.1170 C.2    19  ILE19       0.2616
     24  O         -5.9640    5.8590    1.4260 O.2    19  ILE19      -0.2715
     25  N         -4.8940    4.3400    0.1060 N.am   20  ILE20      -0.1963
     26  CA        -4.3700    5.1770   -0.9560 C.3    20  ILE20       0.1727
     27  CB        -2.8480    5.4620   -0.8180 C.3    20  ILE20       0.0290
     28  CG2       -2.5210    6.1670    0.5290 C.3    20  ILE20       0.0023
     29  CG1       -1.9270    4.2500   -0.9510 C.3    20  ILE20       0.0022
     30  CD1       -0.4520    4.4090   -1.0350 C.3    20  ILE20       0.0001
     31  C         -4.8260    4.7960   -2.3980 C.2    20  ILE20       0.2617
     32  O         -4.8210    3.6210   -2.7490 O.2    20  ILE20      -0.2715
     33  N         -5.1950    5.7710   -3.1960 N.am   21  TRP21      -0.1941
     34  CA        -5.6960    5.8160   -4.5740 C.3    21  TRP21       0.1982
     35  CB        -7.1930    6.0870   -4.6010 C.3    21  TRP21       0.0394
     36  CG        -8.1480    4.9210   -4.3560 C.3    21  TRP21       0.0475
     37  CD1       -8.4270    4.3170   -3.1580 C.3    21  TRP21       0.1166
     38  NE1       -9.4680    3.4340   -3.3480 N.pl3  21  TRP21      -0.2376
     39  CE2      -10.0400    3.5420   -4.5600 C.ar   21  TRP21       0.0614
     40  CZ2      -11.2420    2.9770   -5.0990 C.ar   21  TRP21       0.0158
     41  CH2      -11.3060    3.0240   -6.5170 C.ar   21  TRP21       0.0013
     42  CZ3      -10.3640    3.7270   -7.2650 C.ar   21  TRP21      -0.0002
     43  CE3       -9.2810    4.3830   -6.7050 C.ar   21  TRP21      -0.0030
     44  CD2       -9.0950    4.3440   -5.3390 C.ar   21  TRP21      -0.0059
     45  C         -4.8510    6.8160   -5.3910 C.2    21  TRP21       0.3842
     46  O         -5.0400    8.0490   -5.1500 O.co2  21  TRP21      -0.2437
     47  OXT       -3.9720    6.3760   -6.1010 O.co2  21  TRP21      -0.2437
@<TRIPOS>BOND
     1    42    43   ar
     2    42    41   ar
     3    43    44   ar
     4    41    40   ar
     5    47    45   ar
     6    45    46   ar
     7    45    34    1
     8    44    39   ar
     9    44    36    1
    10    40    39   ar
    11    35    34    1
    12    35    36    1
    13    34    33    1
    14    39    38    1
    15    36    37    1
    16     5     4    1
    17    38    37    1
    18    33    31   am
    19     8     7    2
    20    32    31    2
    21    31    26    1
    22     2     7    1
    23     2     3    1
    24     2     1    1
    25     4     3    1
    26     4     6    1
    27     7     9   am
    28    30    29    1
    29    26    27    1
    30    26    25    1
    31    29    27    1
    32    27    28    1
    33     9    10    1
    34    16    15    2
    35    25    23   am
    36    10    15    1
    37    10    11    1
    38    15    17   am
    39    23    24    2
    40    23    18    1
    41    17    18    1
    42    13    12   ar
    43    11    12    1
    44    12    14   ar
    45    18    19    1
    46    19    20    1
    47    19    21    1
    48    21    22    1
