@<TRIPOS>MOLECULE
23693553
 97 99 0 0 0
SMALL
GASTEIGER

@<TRIPOS>ATOM
      1 O         -10.3389    0.8681   -3.2546 O.2     1  LIG11      -0.2526
      2 O          -8.8607   -0.9537   -0.2989 O.2     1  LIG11      -0.2731
      3 O          -7.6164    2.9307   -1.1539 O.2     1  LIG11      -0.2689
      4 O         -10.5663    1.0649    3.0861 O.co2   1  LIG11      -0.5479
      5 OXT       -10.7821    1.6583    0.8931 O.co2   1  LIG11      -0.5479
      6 O          -4.0265    5.2636   -1.7482 O.3     1  LIG11      -0.4515
      7 O          -2.2039    4.9207   -0.3672 O.2     1  LIG11      -0.2227
      8 N          -9.6009    2.8683   -4.1518 N.am    1  LIG11      -0.2801
      9 N          -8.1526    1.3977   -2.9908 N.am    1  LIG11      -0.2879
     10 N          -8.2424    1.1975    0.2496 N.am    1  LIG11      -0.2273
     11 N          -9.3039    4.7263   -0.2147 N.4     1  LIG11       0.2276
     12 N          -4.3611    4.7218    0.4381 N.ar    1  LIG11      -0.2526
     13 C          -8.4843    3.4941   -4.9191 C.3     1  LIG11       0.0249
     14 C         -11.0146    3.0643   -4.5790 C.3     1  LIG11       0.0249
     15 C          -8.8927    4.4139   -6.0886 C.3     1  LIG11      -0.0344
     16 C         -11.2582    4.1104   -5.6678 C.3     1  LIG11      -0.0344
     17 C         -10.1973    4.0227   -6.7406 C.3     1  LIG11      -0.0497
     18 CA         -7.9451    0.2061   -2.1675 C.3     1  LIG11       0.1019
     19 C          -5.2070    0.1973   -1.9420 C.3     1  LIG11      -0.0356
     20 C          -6.5555   -0.4554   -2.3629 C.3     1  LIG11      -0.0210
     21 C          -9.4173    1.6544   -3.4575 C.2     1  LIG11       0.3033
     22 C          -7.5530    4.3328   -4.0281 C.3     1  LIG11      -0.0464
     23 C         -11.9086    3.4111   -3.3755 C.3     1  LIG11      -0.0464
     24 C          -8.4278    0.1476   -0.6760 C.2     1  LIG11       0.2429
     25 C          -5.1074    0.4599   -0.4341 C.3     1  LIG11      -0.0600
     26 C          -4.0903   -0.8158   -2.3008 C.3     1  LIG11      -0.0600
     27 C          -4.9139    1.4925   -2.7085 C.3     1  LIG11      -0.0600
     28 CA         -8.6594    0.8940    1.6577 C.3     1  LIG11       0.0730
     29 C          -8.1199   -0.4338    2.2293 C.3     1  LIG11      -0.0286
     30 C          -8.1840    2.5337   -0.1235 C.2     1  LIG11       0.2708
     31 CA         -8.7790    3.6797    0.7532 C.3     1  LIG11       0.0579
     32 C          -7.6134   -0.3031    3.6724 C.3     1  LIG11      -0.0513
     33 C          -7.8334    4.3318    1.7722 C.3     1  LIG11       0.0261
     34 C         -10.1896    1.1269    1.8878 C.2     1  LIG11       0.0626
     35 C          -6.3701    4.4233    1.4642 C.ar    1  LIG11      -0.0158
     36 C          -7.0517   -1.6150    4.2289 C.3     1  LIG11      -0.0558
     37 C          -5.3226    4.2186    2.4191 C.ar    1  LIG11       0.0038
     38 C          -5.7480    4.7735    0.2850 C.ar    1  LIG11       0.0202
     39 C          -4.0979    4.4073    1.7711 C.ar    1  LIG11       0.0598
     40 C          -5.7755   -2.0724    3.5359 C.3     1  LIG11      -0.0653
     41 C          -5.3220    3.8994    3.7963 C.ar    1  LIG11      -0.0523
     42 C          -2.8776    4.2785    2.4666 C.ar    1  LIG11      -0.0371
     43 C          -4.1141    3.7827    4.4888 C.ar    1  LIG11      -0.0611
     44 C          -3.4093    4.9676   -0.5725 C.2     1  LIG11       0.4196
     45 C          -2.9079    3.9696    3.8287 C.ar    1  LIG11      -0.0598
     46 C          -3.1141    5.5442   -2.8102 C.3     1  LIG11       0.0835
     47 H          -7.6945    2.2139   -2.6178 H       1  LIG11       0.1510
     48 H1         -9.6135    5.5866    0.2408 H       1  LIG11       0.2002
     49 H2        -10.1139    4.2949   -0.6897 H       1  LIG11       0.2002
     50 H3         -8.5918    4.9005   -0.9347 H       1  LIG11       0.2002
     51 H          -7.9033    2.6669   -5.3472 H       1  LIG11       0.0498
     52 H         -11.3571    2.1071   -4.9961 H       1  LIG11       0.0498
     53 H          -8.0901    4.4275   -6.8372 H       1  LIG11       0.0283
     54 H          -8.9877    5.4501   -5.7352 H       1  LIG11       0.0283
     55 H         -11.2668    5.1209   -5.2372 H       1  LIG11       0.0283
     56 H         -12.2493    3.9552   -6.1117 H       1  LIG11       0.0283
     57 H         -10.1415    3.0152   -7.1676 H       1  LIG11       0.0266
     58 H         -10.4303    4.7172   -7.5548 H       1  LIG11       0.0266
     59 HA         -8.6148   -0.5359   -2.6336 H       1  LIG11       0.0595
     60 H          -6.4769   -0.6906   -3.4353 H       1  LIG11       0.0293
     61 H          -6.6053   -1.4333   -1.8603 H       1  LIG11       0.0293
     62 H          -8.1259    4.9421   -3.3215 H       1  LIG11       0.0248
     63 H          -6.9252    5.0042   -4.6262 H       1  LIG11       0.0248
     64 H          -6.8540    3.7187   -3.4658 H       1  LIG11       0.0248
     65 H         -11.5828    4.3461   -2.9061 H       1  LIG11       0.0248
     66 H         -11.8882    2.6381   -2.6023 H       1  LIG11       0.0248
     67 H         -12.9514    3.5297   -3.6888 H       1  LIG11       0.0248
     68 H          -5.7121    1.3123   -0.1267 H       1  LIG11       0.0235
     69 H          -4.0774    0.6980   -0.1422 H       1  LIG11       0.0235
     70 H          -5.4161   -0.4168    0.1440 H       1  LIG11       0.0235
     71 H          -4.0849   -1.0374   -3.3741 H       1  LIG11       0.0235
     72 H          -4.2264   -1.7614   -1.7633 H       1  LIG11       0.0235
     73 H          -3.0989   -0.4285   -2.0386 H       1  LIG11       0.0235
     74 H          -5.0858    1.3693   -3.7831 H       1  LIG11       0.0235
     75 H          -3.8715    1.8044   -2.5737 H       1  LIG11       0.0235
     76 H          -5.5284    2.3188   -2.3531 H       1  LIG11       0.0235
     77 HA         -8.1779    1.6758    2.2535 H       1  LIG11       0.0567
     78 H          -7.2837   -0.7826    1.6156 H       1  LIG11       0.0287
     79 H          -8.8997   -1.2043    2.1993 H       1  LIG11       0.0287
     80 HA         -9.6741    3.4290    1.3004 H       1  LIG11       0.0952
     81 H          -8.4348    0.0226    4.3201 H       1  LIG11       0.0266
     82 H          -6.8389    0.4720    3.7256 H       1  LIG11       0.0266
     83 H          -7.9455    3.7754    2.7104 H       1  LIG11       0.0374
     84 H          -8.1876    5.3448    2.0085 H       1  LIG11       0.0374
     85 H          -7.8077   -2.4057    4.1602 H       1  LIG11       0.0263
     86 H          -6.8346   -1.4741    5.2943 H       1  LIG11       0.0263
     87 H          -6.1519    5.0333   -0.6827 H       1  LIG11       0.0818
     88 H          -5.9616   -2.3626    2.4977 H       1  LIG11       0.0230
     89 H          -5.3603   -2.9447    4.0508 H       1  LIG11       0.0230
     90 H          -5.0181   -1.2821    3.5436 H       1  LIG11       0.0230
     91 H          -6.2534    3.7497    4.3367 H       1  LIG11       0.0624
     92 H          -1.9205    4.4207    1.9724 H       1  LIG11       0.0638
     93 H          -4.1211    3.5447    5.5498 H       1  LIG11       0.0618
     94 H          -1.9723    3.8757    4.3775 H       1  LIG11       0.0618
     95 H          -3.6963    5.7379   -3.7153 H       1  LIG11       0.0661
     96 H          -2.4605    4.6856   -2.9956 H       1  LIG11       0.0661
     97 H          -2.5255    6.4372   -2.5793 H       1  LIG11       0.0661
@<TRIPOS>BOND
     1     1    21    2
     2     2    24    2
     3     3    30    2
     4     4    34   ar
     5     5    34   ar
     6     6    44    1
     7     6    46    1
     8     7    44    2
     9     8    13    1
    10     8    14    1
    11     9    21   am
    12    10    24   am
    13    10    30   am
    14    12    39   ar
    15    12    38   ar
    16    12    44   am
    17    13    15    1
    18    13    22    1
    19    14    16    1
    20    14    23    1
    21    15    17    1
    22    16    17    1
    23    18     9    1
    24    18    24    1
    25    18    20    1
    26    19    20    1
    27    19    27    1
    28    19    26    1
    29    19    25    1
    30    21     8   am
    31    28    34    1
    32    28    29    1
    33    28    10    1
    34    29    32    1
    35    31    33    1
    36    31    11    1
    37    31    30    1
    38    32    36    1
    39    33    35    1
    40    35    38   ar
    41    35    37   ar
    42    36    40    1
    43    37    39   ar
    44    37    41   ar
    45    39    42   ar
    46    41    43   ar
    47    42    45   ar
    48    43    45   ar
    49     9    47    1
    50    11    48    1
    51    11    49    1
    52    11    50    1
    53    13    51    1
    54    14    52    1
    55    15    53    1
    56    15    54    1
    57    16    55    1
    58    16    56    1
    59    17    57    1
    60    17    58    1
    61    18    59    1
    62    20    60    1
    63    20    61    1
    64    22    62    1
    65    22    63    1
    66    22    64    1
    67    23    65    1
    68    23    66    1
    69    23    67    1
    70    25    68    1
    71    25    69    1
    72    25    70    1
    73    26    71    1
    74    26    72    1
    75    26    73    1
    76    27    74    1
    77    27    75    1
    78    27    76    1
    79    28    77    1
    80    29    78    1
    81    29    79    1
    82    31    80    1
    83    32    81    1
    84    32    82    1
    85    33    83    1
    86    33    84    1
    87    36    85    1
    88    36    86    1
    89    38    87    1
    90    40    88    1
    91    40    89    1
    92    40    90    1
    93    41    91    1
    94    42    92    1
    95    43    93    1
    96    45    94    1
    97    46    95    1
    98    46    96    1
    99    46    97    1
@<TRIPOS>MOLECULE
../1EDN/PCA1_17-21.pdb
 47 48 0 0 0
SMALL
GASTEIGER

@<TRIPOS>ATOM
      1  N         -4.6470   -0.3680   -1.6750 N.3    17  LEU17      -0.1231
      2  CA        -5.8920   -0.8550   -2.2480 C.3    17  LEU17       0.1693
      3  CB        -6.0770   -2.3450   -1.7480 C.3    17  LEU17       0.0284
      4  CG        -7.4170   -3.0590   -2.1890 C.3    17  LEU17       0.0019
      5  CD1       -7.4920   -3.1930   -3.7220 C.3    17  LEU17       0.0001
      6  CD2       -7.5340   -4.4610   -1.6100 C.3    17  LEU17       0.0001
      7  C         -7.0080    0.1010   -1.8270 C.2    17  LEU17       0.2592
      8  O         -7.6220    0.6590   -2.7680 O.2    17  LEU17      -0.2718
      9  N         -7.2890    0.1920   -0.5460 N.am   18  ASP18      -0.1960
     10  CA        -8.2730    1.1070    0.1120 C.3    18  ASP18       0.1840
     11  CB        -8.8290    0.4520    1.4200 C.3    18  ASP18       0.1450
     12  CG        -9.9140    1.2760    2.0640 C.2    18  ASP18       0.3671
     13  OD1      -10.8560    1.7240    1.3430 O.co2  18  ASP18      -0.2456
     14  OD2       -9.7710    1.5960    3.2830 O.co2  18  ASP18      -0.2456
     15  C         -7.6270    2.4530    0.4740 C.2    18  ASP18       0.2622
     16  O         -8.0770    3.4620   -0.0480 O.2    18  ASP18      -0.2715
     17  N         -6.6010    2.4770    1.3340 N.am   19  ILE19      -0.1963
     18  CA        -6.1660    3.6270    2.0790 C.3    19  ILE19       0.1727
     19  CB        -5.0730    3.3500    3.1520 C.3    19  ILE19       0.0290
     20  CG2       -4.5850    4.5470    3.9530 C.3    19  ILE19       0.0023
     21  CG1       -5.6210    2.1420    3.9730 C.3    19  ILE19       0.0022
     22  CD1       -6.7460    2.5740    4.8760 C.3    19  ILE19       0.0001
     23  C         -5.6740    4.7260    1.1170 C.2    19  ILE19       0.2616
     24  O         -5.9640    5.8590    1.4260 O.2    19  ILE19      -0.2715
     25  N         -4.8940    4.3400    0.1060 N.am   20  ILE20      -0.1963
     26  CA        -4.3700    5.1770   -0.9560 C.3    20  ILE20       0.1727
     27  CB        -2.8480    5.4620   -0.8180 C.3    20  ILE20       0.0290
     28  CG2       -2.5210    6.1670    0.5290 C.3    20  ILE20       0.0023
     29  CG1       -1.9270    4.2500   -0.9510 C.3    20  ILE20       0.0022
     30  CD1       -0.4520    4.4090   -1.0350 C.3    20  ILE20       0.0001
     31  C         -4.8260    4.7960   -2.3980 C.2    20  ILE20       0.2617
     32  O         -4.8210    3.6210   -2.7490 O.2    20  ILE20      -0.2715
     33  N         -5.1950    5.7710   -3.1960 N.am   21  TRP21      -0.1941
     34  CA        -5.6960    5.8160   -4.5740 C.3    21  TRP21       0.1982
     35  CB        -7.1930    6.0870   -4.6010 C.3    21  TRP21       0.0394
     36  CG        -8.1480    4.9210   -4.3560 C.3    21  TRP21       0.0475
     37  CD1       -8.4270    4.3170   -3.1580 C.3    21  TRP21       0.1166
     38  NE1       -9.4680    3.4340   -3.3480 N.pl3  21  TRP21      -0.2376
     39  CE2      -10.0400    3.5420   -4.5600 C.ar   21  TRP21       0.0614
     40  CZ2      -11.2420    2.9770   -5.0990 C.ar   21  TRP21       0.0158
     41  CH2      -11.3060    3.0240   -6.5170 C.ar   21  TRP21       0.0013
     42  CZ3      -10.3640    3.7270   -7.2650 C.ar   21  TRP21      -0.0002
     43  CE3       -9.2810    4.3830   -6.7050 C.ar   21  TRP21      -0.0030
     44  CD2       -9.0950    4.3440   -5.3390 C.ar   21  TRP21      -0.0059
     45  C         -4.8510    6.8160   -5.3910 C.2    21  TRP21       0.3842
     46  O         -5.0400    8.0490   -5.1500 O.co2  21  TRP21      -0.2437
     47  OXT       -3.9720    6.3760   -6.1010 O.co2  21  TRP21      -0.2437
@<TRIPOS>BOND
     1    42    43   ar
     2    42    41   ar
     3    43    44   ar
     4    41    40   ar
     5    47    45   ar
     6    45    46   ar
     7    45    34    1
     8    44    39   ar
     9    44    36    1
    10    40    39   ar
    11    35    34    1
    12    35    36    1
    13    34    33    1
    14    39    38    1
    15    36    37    1
    16     5     4    1
    17    38    37    1
    18    33    31   am
    19     8     7    2
    20    32    31    2
    21    31    26    1
    22     2     7    1
    23     2     3    1
    24     2     1    1
    25     4     3    1
    26     4     6    1
    27     7     9   am
    28    30    29    1
    29    26    27    1
    30    26    25    1
    31    29    27    1
    32    27    28    1
    33     9    10    1
    34    16    15    2
    35    25    23   am
    36    10    15    1
    37    10    11    1
    38    15    17   am
    39    23    24    2
    40    23    18    1
    41    17    18    1
    42    13    12   ar
    43    11    12    1
    44    12    14   ar
    45    18    19    1
    46    19    20    1
    47    19    21    1
    48    21    22    1
