@<TRIPOS>MOLECULE
01178588C
 55 57 0 0 0
SMALL
GASTEIGER

@<TRIPOS>ATOM
      1 S          -6.2649    4.2349    0.8816 S.O2    1  LIG11       0.0756
      2 C          -4.7420    4.6998    0.1071 C.ar    1  LIG11       0.1344
      3 N          -6.9110    3.0492   -0.1232 N.pl3   1  LIG11      -0.1951
      4 O          -7.1050    5.4102    0.9081 O.2     1  LIG11      -0.1499
      5 O          -5.8962    3.5909    2.1310 O.2     1  LIG11      -0.1499
      6 C          -4.6128    5.0075   -1.2446 C.ar    1  LIG11       0.0975
      7 C          -3.5929    4.7102    0.9211 C.ar    1  LIG11      -0.0315
      8 C          -7.7233    2.1176    0.5731 C.ar    1  LIG11       0.2006
      9 C          -5.6624    5.0227   -2.2855 C.ar    1  LIG11       0.0023
     10 N          -3.3788    5.2963   -1.7678 N.ar    1  LIG11      -0.2530
     11 C          -2.3520    5.0175    0.3809 C.ar    1  LIG11      -0.0417
     12 C          -8.9317    2.4146    1.2193 C.ar    1  LIG11       0.2574
     13 N          -7.1318    0.9043    0.6449 N.ar    1  LIG11      -0.2325
     14 C          -6.8623    5.7373   -2.1693 C.ar    1  LIG11      -0.0523
     15 C          -5.4261    4.3700   -3.5119 C.ar    1  LIG11      -0.0523
     16 C          -2.2961    5.3025   -0.9638 C.ar    1  LIG11       0.0284
     17 N          -9.5753    1.4980    1.9870 N.ar    1  LIG11      -0.2137
     18 O          -9.4773    3.6688    1.0610 O.3     1  LIG11      -0.4773
     19 C          -7.7840    0.0039    1.4184 C.ar    1  LIG11       0.0510
     20 C          -7.8034    5.7583   -3.2094 C.ar    1  LIG11      -0.0579
     21 C          -6.3459    4.4193   -4.5645 C.ar    1  LIG11      -0.0579
     22 C          -8.9759    0.2859    2.0845 C.ar    1  LIG11       0.0602
     23 C         -10.7349    3.8306    1.7019 C.3     1  LIG11       0.0805
     24 C          -7.5532    5.1031   -4.4198 C.ar    1  LIG11      -0.0465
     25 C          -9.6109   -0.7363    2.9735 C.3     1  LIG11      -0.0208
     26 C          -8.5438    5.1909   -5.5667 C.3     1  LIG11      -0.0174
     27 C          -9.4159    3.9443   -5.8415 C.3     1  LIG11       0.0085
     28 C         -10.4277    4.2555   -6.9873 C.2     1  LIG11       0.0477
     29 C          -8.5973    2.7567   -6.3645 C.3     1  LIG11      -0.0544
     30 C         -10.2211    3.5311   -4.6041 C.3     1  LIG11      -0.0544
     31 O         -10.2475    5.3360   -7.6158 O.co2   1  LIG11      -0.5493
     32 O         -11.3210    3.3794   -7.1847 O.co2   1  LIG11      -0.5493
     33 H          -6.2210    2.5483   -0.6769 H       1  LIG11       0.1754
     34 H          -3.6587    4.4761    1.9823 H       1  LIG11       0.0638
     35 H          -1.4575    5.0291    0.9930 H       1  LIG11       0.0633
     36 H          -7.0833    6.3264   -1.2841 H       1  LIG11       0.0624
     37 H          -4.4874    3.8422   -3.6731 H       1  LIG11       0.0624
     38 H          -1.3578    5.5481   -1.4531 H       1  LIG11       0.0830
     39 H          -7.3059   -0.9662    1.5029 H       1  LIG11       0.0848
     40 H          -8.7273    6.3181   -3.0776 H       1  LIG11       0.0620
     41 H          -6.1026    3.9365   -5.5075 H       1  LIG11       0.0620
     42 H         -11.0918    4.8427    1.4874 H       1  LIG11       0.0660
     43 H         -10.6403    3.7346    2.7892 H       1  LIG11       0.0660
     44 H         -11.4772    3.1270    1.3088 H       1  LIG11       0.0660
     45 H         -10.6031   -0.4055    3.2999 H       1  LIG11       0.0293
     46 H          -8.9937   -0.8940    3.8627 H       1  LIG11       0.0293
     47 H          -9.7286   -1.6872    2.4441 H       1  LIG11       0.0293
     48 H          -7.9731    5.4600   -6.4675 H       1  LIG11       0.0322
     49 H          -9.1974    6.0557   -5.3814 H       1  LIG11       0.0322
     50 H          -7.9407    2.3483   -5.5901 H       1  LIG11       0.0239
     51 H          -7.9762    3.0498   -7.2191 H       1  LIG11       0.0239
     52 H          -9.2354    1.9300   -6.6984 H       1  LIG11       0.0239
     53 H          -9.5659    3.2497   -3.7725 H       1  LIG11       0.0239
     54 H         -10.8651    2.6661   -4.8021 H       1  LIG11       0.0239
     55 H         -10.8681    4.3483   -4.2653 H       1  LIG11       0.0239
@<TRIPOS>BOND
     1     1     5    2
     2     1     4    2
     3     1     3    1
     4     1     2    1
     5     2     6   ar
     6     2     7   ar
     7     3     8    1
     8     6    10   ar
     9     6     9    1
    10     7    11   ar
    11     8    12   ar
    12     8    13   ar
    13     9    14   ar
    14     9    15   ar
    15    10    16   ar
    16    11    16   ar
    17    12    17   ar
    18    12    18    1
    19    13    19   ar
    20    14    20   ar
    21    15    21   ar
    22    17    22   ar
    23    18    23    1
    24    19    22   ar
    25    20    24   ar
    26    21    24   ar
    27    22    25    1
    28    24    26    1
    29    26    27    1
    30    27    30    1
    31    27    29    1
    32    27    28    1
    33    28    32   ar
    34    28    31   ar
    35     3    33    1
    36     7    34    1
    37    11    35    1
    38    14    36    1
    39    15    37    1
    40    16    38    1
    41    19    39    1
    42    20    40    1
    43    21    41    1
    44    23    42    1
    45    23    43    1
    46    23    44    1
    47    25    45    1
    48    25    46    1
    49    25    47    1
    50    26    48    1
    51    26    49    1
    52    29    50    1
    53    29    51    1
    54    29    52    1
    55    30    53    1
    56    30    54    1
    57    30    55    1
@<TRIPOS>MOLECULE
../1EDN/PCA1_17-21.pdb
 47 48 0 0 0
SMALL
GASTEIGER

@<TRIPOS>ATOM
      1  N         -4.6470   -0.3680   -1.6750 N.3    17  LEU17      -0.1231
      2  CA        -5.8920   -0.8550   -2.2480 C.3    17  LEU17       0.1693
      3  CB        -6.0770   -2.3450   -1.7480 C.3    17  LEU17       0.0284
      4  CG        -7.4170   -3.0590   -2.1890 C.3    17  LEU17       0.0019
      5  CD1       -7.4920   -3.1930   -3.7220 C.3    17  LEU17       0.0001
      6  CD2       -7.5340   -4.4610   -1.6100 C.3    17  LEU17       0.0001
      7  C         -7.0080    0.1010   -1.8270 C.2    17  LEU17       0.2592
      8  O         -7.6220    0.6590   -2.7680 O.2    17  LEU17      -0.2718
      9  N         -7.2890    0.1920   -0.5460 N.am   18  ASP18      -0.1960
     10  CA        -8.2730    1.1070    0.1120 C.3    18  ASP18       0.1840
     11  CB        -8.8290    0.4520    1.4200 C.3    18  ASP18       0.1450
     12  CG        -9.9140    1.2760    2.0640 C.2    18  ASP18       0.3671
     13  OD1      -10.8560    1.7240    1.3430 O.co2  18  ASP18      -0.2456
     14  OD2       -9.7710    1.5960    3.2830 O.co2  18  ASP18      -0.2456
     15  C         -7.6270    2.4530    0.4740 C.2    18  ASP18       0.2622
     16  O         -8.0770    3.4620   -0.0480 O.2    18  ASP18      -0.2715
     17  N         -6.6010    2.4770    1.3340 N.am   19  ILE19      -0.1963
     18  CA        -6.1660    3.6270    2.0790 C.3    19  ILE19       0.1727
     19  CB        -5.0730    3.3500    3.1520 C.3    19  ILE19       0.0290
     20  CG2       -4.5850    4.5470    3.9530 C.3    19  ILE19       0.0023
     21  CG1       -5.6210    2.1420    3.9730 C.3    19  ILE19       0.0022
     22  CD1       -6.7460    2.5740    4.8760 C.3    19  ILE19       0.0001
     23  C         -5.6740    4.7260    1.1170 C.2    19  ILE19       0.2616
     24  O         -5.9640    5.8590    1.4260 O.2    19  ILE19      -0.2715
     25  N         -4.8940    4.3400    0.1060 N.am   20  ILE20      -0.1963
     26  CA        -4.3700    5.1770   -0.9560 C.3    20  ILE20       0.1727
     27  CB        -2.8480    5.4620   -0.8180 C.3    20  ILE20       0.0290
     28  CG2       -2.5210    6.1670    0.5290 C.3    20  ILE20       0.0023
     29  CG1       -1.9270    4.2500   -0.9510 C.3    20  ILE20       0.0022
     30  CD1       -0.4520    4.4090   -1.0350 C.3    20  ILE20       0.0001
     31  C         -4.8260    4.7960   -2.3980 C.2    20  ILE20       0.2617
     32  O         -4.8210    3.6210   -2.7490 O.2    20  ILE20      -0.2715
     33  N         -5.1950    5.7710   -3.1960 N.am   21  TRP21      -0.1941
     34  CA        -5.6960    5.8160   -4.5740 C.3    21  TRP21       0.1982
     35  CB        -7.1930    6.0870   -4.6010 C.3    21  TRP21       0.0394
     36  CG        -8.1480    4.9210   -4.3560 C.3    21  TRP21       0.0475
     37  CD1       -8.4270    4.3170   -3.1580 C.3    21  TRP21       0.1166
     38  NE1       -9.4680    3.4340   -3.3480 N.pl3  21  TRP21      -0.2376
     39  CE2      -10.0400    3.5420   -4.5600 C.ar   21  TRP21       0.0614
     40  CZ2      -11.2420    2.9770   -5.0990 C.ar   21  TRP21       0.0158
     41  CH2      -11.3060    3.0240   -6.5170 C.ar   21  TRP21       0.0013
     42  CZ3      -10.3640    3.7270   -7.2650 C.ar   21  TRP21      -0.0002
     43  CE3       -9.2810    4.3830   -6.7050 C.ar   21  TRP21      -0.0030
     44  CD2       -9.0950    4.3440   -5.3390 C.ar   21  TRP21      -0.0059
     45  C         -4.8510    6.8160   -5.3910 C.2    21  TRP21       0.3842
     46  O         -5.0400    8.0490   -5.1500 O.co2  21  TRP21      -0.2437
     47  OXT       -3.9720    6.3760   -6.1010 O.co2  21  TRP21      -0.2437
@<TRIPOS>BOND
     1    42    43   ar
     2    42    41   ar
     3    43    44   ar
     4    41    40   ar
     5    47    45   ar
     6    45    46   ar
     7    45    34    1
     8    44    39   ar
     9    44    36    1
    10    40    39   ar
    11    35    34    1
    12    35    36    1
    13    34    33    1
    14    39    38    1
    15    36    37    1
    16     5     4    1
    17    38    37    1
    18    33    31   am
    19     8     7    2
    20    32    31    2
    21    31    26    1
    22     2     7    1
    23     2     3    1
    24     2     1    1
    25     4     3    1
    26     4     6    1
    27     7     9   am
    28    30    29    1
    29    26    27    1
    30    26    25    1
    31    29    27    1
    32    27    28    1
    33     9    10    1
    34    16    15    2
    35    25    23   am
    36    10    15    1
    37    10    11    1
    38    15    17   am
    39    23    24    2
    40    23    18    1
    41    17    18    1
    42    13    12   ar
    43    11    12    1
    44    12    14   ar
    45    18    19    1
    46    19    20    1
    47    19    21    1
    48    21    22    1
