@<TRIPOS>MOLECULE
6433095
 64 68 0 0 0
SMALL
GASTEIGER

@<TRIPOS>ATOM
      1 S          -9.1204    1.1245    0.5937 S.O2    1  LIG11       0.0908
      2 O          -6.2899    3.4018    1.8845 O.3     1  LIG11      -0.4435
      3 O          -4.3315    4.2674   -0.0037 O.3     1  LIG11      -0.4715
      4 O         -10.2747    1.1312   -0.2814 O.2     1  LIG11      -0.1484
      5 O          -9.1932    0.4555    1.8816 O.2     1  LIG11      -0.1484
      6 O          -4.8761    2.4138    3.8805 O.3     1  LIG11      -0.4914
      7 O          -2.1369    3.0761   -2.7099 O.3     1  LIG11      -0.3917
      8 N          -8.7287    2.7339    0.9358 N.pl3   1  LIG11      -0.1950
      9 N          -8.1966    3.5893   -1.1932 N.ar    1  LIG11      -0.2073
     10 N          -6.0047    4.4124   -1.6321 N.ar    1  LIG11      -0.1899
     11 N          -6.5189    0.6071    0.2143 N.ar    1  LIG11      -0.2351
     12 N          -8.4193    5.7375   -5.8106 N.ar    1  LIG11      -0.2552
     13 N         -10.5238    4.5181   -7.3135 N.ar    1  LIG11      -0.5621
     14 N         -10.5065    2.7141   -5.9502 N.ar    1  LIG11      -0.1535
     15 N         -11.3286    3.5276   -7.7106 N.ar    1  LIG11      -0.3597
     16 N         -11.3483    2.4375   -6.9364 N.ar    1  LIG11      -0.0878
     17 C          -7.7944    3.3655    0.0697 C.ar    1  LIG11       0.1882
     18 C          -6.5465    3.6816    0.5734 C.ar    1  LIG11       0.2307
     19 C          -5.6515    4.1215   -0.3689 C.ar    1  LIG11       0.2641
     20 C          -7.2823    4.1734   -1.9850 C.ar    1  LIG11       0.1659
     21 C          -7.7536    0.4009   -0.3187 C.ar    1  LIG11       0.1969
     22 C          -7.6913    4.6832   -3.3028 C.ar    1  LIG11       0.0227
     23 C          -7.9983   -0.2651   -1.5091 C.ar    1  LIG11      -0.0160
     24 C          -5.5918    4.3079    2.6519 C.ar    1  LIG11       0.1702
     25 C          -8.6871    4.0729   -4.0788 C.ar    1  LIG11      -0.0252
     26 C          -5.6137   -0.5902   -1.6924 C.ar    1  LIG11      -0.0322
     27 C          -6.9025   -0.7648   -2.2052 C.ar    1  LIG11      -0.0541
     28 C          -7.0788    5.8346   -3.8262 C.ar    1  LIG11      -0.0328
     29 C          -3.4056    4.3492   -1.0875 C.3     1  LIG11       0.1143
     30 C          -9.0148    4.6166   -5.3226 C.ar    1  LIG11       0.0708
     31 C          -5.4815    0.0979   -0.4872 C.ar    1  LIG11       0.0327
     32 C          -4.8536    3.7760    3.7191 C.ar    1  LIG11       0.1621
     33 C          -5.6464    5.6940    2.4648 C.ar    1  LIG11      -0.0157
     34 C          -7.4734    6.3209   -5.0569 C.ar    1  LIG11       0.0289
     35 C          -4.4106   -1.0909   -2.4289 C.3     1  LIG11      -0.0383
     36 C          -3.1633    2.9846   -1.7299 C.3     1  LIG11       0.0783
     37 C          -4.0920    4.6228    4.5271 C.ar    1  LIG11      -0.0163
     38 C          -4.8930    6.5363    3.2836 C.ar    1  LIG11      -0.0581
     39 C          -4.1079    6.0007    4.3036 C.ar    1  LIG11      -0.0581
     40 C         -10.0092    3.9788   -6.1892 C.ar    1  LIG11       0.0207
     41 C          -4.9806    1.9910    5.2372 C.3     1  LIG11       0.0790
     42 H          -2.0537    2.1979   -3.1190 H       1  LIG11       0.2095
     43 H          -8.4428    2.7729    1.9156 H       1  LIG11       0.1754
     44 H         -11.8920    3.5965   -8.5535 H       1  LIG11       0.1651
     45 H          -9.0067   -0.3908   -1.8896 H       1  LIG11       0.0653
     46 H          -9.1920    3.1800   -3.7178 H       1  LIG11       0.0646
     47 H          -7.0615   -1.2909   -3.1439 H       1  LIG11       0.0622
     48 H          -6.3045    6.3593   -3.2724 H       1  LIG11       0.0640
     49 H          -2.4594    4.7073   -0.6646 H       1  LIG11       0.0720
     50 H          -3.6900    5.1100   -1.8254 H       1  LIG11       0.0720
     51 H          -4.5035    0.2674   -0.0416 H       1  LIG11       0.0833
     52 H          -6.2574    6.1370    1.6841 H       1  LIG11       0.0655
     53 H          -7.0252    7.2161   -5.4787 H       1  LIG11       0.0830
     54 H          -4.6940   -1.7765   -3.2348 H       1  LIG11       0.0278
     55 H          -3.7449   -1.6365   -1.7527 H       1  LIG11       0.0278
     56 H          -3.8642   -0.2520   -2.8721 H       1  LIG11       0.0278
     57 H          -2.8639    2.2552   -0.9697 H       1  LIG11       0.0591
     58 H          -4.0700    2.6045   -2.2107 H       1  LIG11       0.0591
     59 H          -3.4664    4.2255    5.3196 H       1  LIG11       0.0655
     60 H          -4.9117    7.6111    3.1199 H       1  LIG11       0.0619
     61 H          -3.5064    6.6576    4.9271 H       1  LIG11       0.0619
     62 H          -5.3585    0.9640    5.2392 H       1  LIG11       0.0660
     63 H          -5.6862    2.6068    5.8070 H       1  LIG11       0.0660
     64 H          -3.9955    1.9879    5.7132 H       1  LIG11       0.0660
@<TRIPOS>BOND
     1     1     4    2
     2     1     5    2
     3     1     8    1
     4     1    21    1
     5     2    18    1
     6     2    24    1
     7     3    19    1
     8     3    29    1
     9     6    32    1
    10     6    41    1
    11     7    36    1
    12     8    17    1
    13     9    17   ar
    14     9    20   ar
    15    10    19   ar
    16    10    20   ar
    17    11    21   ar
    18    11    31   ar
    19    12    30   ar
    20    12    34   ar
    21    13    15   ar
    22    13    40   ar
    23    14    16   ar
    24    14    40   ar
    25    15    16   ar
    26    17    18   ar
    27    18    19   ar
    28    20    22    1
    29    21    23   ar
    30    22    25   ar
    31    22    28   ar
    32    23    27   ar
    33    24    32   ar
    34    24    33   ar
    35    25    30   ar
    36    26    27   ar
    37    26    31   ar
    38    26    35    1
    39    28    34   ar
    40    29    36    1
    41    30    40    1
    42    32    37   ar
    43    33    38   ar
    44    37    39   ar
    45    38    39   ar
    46     7    42    1
    47     8    43    1
    48    15    44    1
    49    23    45    1
    50    25    46    1
    51    27    47    1
    52    28    48    1
    53    29    49    1
    54    29    50    1
    55    31    51    1
    56    33    52    1
    57    34    53    1
    58    35    54    1
    59    35    55    1
    60    35    56    1
    61    36    57    1
    62    36    58    1
    63    37    59    1
    64    38    60    1
    65    39    61    1
    66    41    62    1
    67    41    63    1
    68    41    64    1
@<TRIPOS>MOLECULE
../1EDN/PCA1_17-21.pdb
 47 48 0 0 0
SMALL
GASTEIGER

@<TRIPOS>ATOM
      1  N         -4.6470   -0.3680   -1.6750 N.3    17  LEU17      -0.1231
      2  CA        -5.8920   -0.8550   -2.2480 C.3    17  LEU17       0.1693
      3  CB        -6.0770   -2.3450   -1.7480 C.3    17  LEU17       0.0284
      4  CG        -7.4170   -3.0590   -2.1890 C.3    17  LEU17       0.0019
      5  CD1       -7.4920   -3.1930   -3.7220 C.3    17  LEU17       0.0001
      6  CD2       -7.5340   -4.4610   -1.6100 C.3    17  LEU17       0.0001
      7  C         -7.0080    0.1010   -1.8270 C.2    17  LEU17       0.2592
      8  O         -7.6220    0.6590   -2.7680 O.2    17  LEU17      -0.2718
      9  N         -7.2890    0.1920   -0.5460 N.am   18  ASP18      -0.1960
     10  CA        -8.2730    1.1070    0.1120 C.3    18  ASP18       0.1840
     11  CB        -8.8290    0.4520    1.4200 C.3    18  ASP18       0.1450
     12  CG        -9.9140    1.2760    2.0640 C.2    18  ASP18       0.3671
     13  OD1      -10.8560    1.7240    1.3430 O.co2  18  ASP18      -0.2456
     14  OD2       -9.7710    1.5960    3.2830 O.co2  18  ASP18      -0.2456
     15  C         -7.6270    2.4530    0.4740 C.2    18  ASP18       0.2622
     16  O         -8.0770    3.4620   -0.0480 O.2    18  ASP18      -0.2715
     17  N         -6.6010    2.4770    1.3340 N.am   19  ILE19      -0.1963
     18  CA        -6.1660    3.6270    2.0790 C.3    19  ILE19       0.1727
     19  CB        -5.0730    3.3500    3.1520 C.3    19  ILE19       0.0290
     20  CG2       -4.5850    4.5470    3.9530 C.3    19  ILE19       0.0023
     21  CG1       -5.6210    2.1420    3.9730 C.3    19  ILE19       0.0022
     22  CD1       -6.7460    2.5740    4.8760 C.3    19  ILE19       0.0001
     23  C         -5.6740    4.7260    1.1170 C.2    19  ILE19       0.2616
     24  O         -5.9640    5.8590    1.4260 O.2    19  ILE19      -0.2715
     25  N         -4.8940    4.3400    0.1060 N.am   20  ILE20      -0.1963
     26  CA        -4.3700    5.1770   -0.9560 C.3    20  ILE20       0.1727
     27  CB        -2.8480    5.4620   -0.8180 C.3    20  ILE20       0.0290
     28  CG2       -2.5210    6.1670    0.5290 C.3    20  ILE20       0.0023
     29  CG1       -1.9270    4.2500   -0.9510 C.3    20  ILE20       0.0022
     30  CD1       -0.4520    4.4090   -1.0350 C.3    20  ILE20       0.0001
     31  C         -4.8260    4.7960   -2.3980 C.2    20  ILE20       0.2617
     32  O         -4.8210    3.6210   -2.7490 O.2    20  ILE20      -0.2715
     33  N         -5.1950    5.7710   -3.1960 N.am   21  TRP21      -0.1941
     34  CA        -5.6960    5.8160   -4.5740 C.3    21  TRP21       0.1982
     35  CB        -7.1930    6.0870   -4.6010 C.3    21  TRP21       0.0394
     36  CG        -8.1480    4.9210   -4.3560 C.3    21  TRP21       0.0475
     37  CD1       -8.4270    4.3170   -3.1580 C.3    21  TRP21       0.1166
     38  NE1       -9.4680    3.4340   -3.3480 N.pl3  21  TRP21      -0.2376
     39  CE2      -10.0400    3.5420   -4.5600 C.ar   21  TRP21       0.0614
     40  CZ2      -11.2420    2.9770   -5.0990 C.ar   21  TRP21       0.0158
     41  CH2      -11.3060    3.0240   -6.5170 C.ar   21  TRP21       0.0013
     42  CZ3      -10.3640    3.7270   -7.2650 C.ar   21  TRP21      -0.0002
     43  CE3       -9.2810    4.3830   -6.7050 C.ar   21  TRP21      -0.0030
     44  CD2       -9.0950    4.3440   -5.3390 C.ar   21  TRP21      -0.0059
     45  C         -4.8510    6.8160   -5.3910 C.2    21  TRP21       0.3842
     46  O         -5.0400    8.0490   -5.1500 O.co2  21  TRP21      -0.2437
     47  OXT       -3.9720    6.3760   -6.1010 O.co2  21  TRP21      -0.2437
@<TRIPOS>BOND
     1    42    43   ar
     2    42    41   ar
     3    43    44   ar
     4    41    40   ar
     5    47    45   ar
     6    45    46   ar
     7    45    34    1
     8    44    39   ar
     9    44    36    1
    10    40    39   ar
    11    35    34    1
    12    35    36    1
    13    34    33    1
    14    39    38    1
    15    36    37    1
    16     5     4    1
    17    38    37    1
    18    33    31   am
    19     8     7    2
    20    32    31    2
    21    31    26    1
    22     2     7    1
    23     2     3    1
    24     2     1    1
    25     4     3    1
    26     4     6    1
    27     7     9   am
    28    30    29    1
    29    26    27    1
    30    26    25    1
    31    29    27    1
    32    27    28    1
    33     9    10    1
    34    16    15    2
    35    25    23   am
    36    10    15    1
    37    10    11    1
    38    15    17   am
    39    23    24    2
    40    23    18    1
    41    17    18    1
    42    13    12   ar
    43    11    12    1
    44    12    14   ar
    45    18    19    1
    46    19    20    1
    47    19    21    1
    48    21    22    1
