@<TRIPOS>MOLECULE
9843631
 45 48 0 0 0
SMALL
GASTEIGER

@<TRIPOS>ATOM
      1 S          -5.4854    5.0835    0.6786 S.O2    1  LIG11       0.0752
      2 O          -5.2633    2.6243    3.2494 O.2     1  LIG11      -0.3377
      3 O          -5.1562    5.7588    1.9161 O.2     1  LIG11      -0.1499
      4 O          -6.7159    5.3839   -0.0181 O.2     1  LIG11      -0.1499
      5 O          -9.8410    3.3078   -4.4401 O.2     1  LIG11      -0.4436
      6 N          -5.3592    3.3994    0.9466 N.pl3   1  LIG11      -0.1831
      7 N          -6.1141    2.2102    4.2507 N.ar    1  LIG11      -0.0810
      8 N          -9.2218    4.6597   -6.1403 N.ar    1  LIG11      -0.2175
      9 C          -4.0794    5.2863   -0.4181 C.ar    1  LIG11       0.1162
     10 C          -4.1315    5.0985   -1.8154 C.ar    1  LIG11       0.0087
     11 C          -5.3400    4.8070   -2.6184 C.ar    1  LIG11      -0.0160
     12 C          -2.8621    5.6138    0.2222 C.ar    1  LIG11      -0.0345
     13 C          -5.9835    2.9889    2.1553 C.ar    1  LIG11       0.2399
     14 C          -2.9070    5.2211   -2.5159 C.ar    1  LIG11      -0.0521
     15 C          -7.3222    2.7647    2.3890 C.ar    1  LIG11       0.0350
     16 C          -6.1625    3.6983   -2.3783 C.ar    1  LIG11      -0.0533
     17 C          -5.6783    5.6364   -3.7056 C.ar    1  LIG11      -0.0533
     18 C          -1.6823    5.7359   -0.5056 C.ar    1  LIG11      -0.0599
     19 C          -1.7034    5.5324   -1.8760 C.ar    1  LIG11      -0.0611
     20 C          -7.6671    4.3252   -4.1925 C.ar    1  LIG11       0.0369
     21 C          -7.3453    2.2911    3.7345 C.ar    1  LIG11       0.0854
     22 C          -7.3244    3.4775   -3.1329 C.ar    1  LIG11      -0.0489
     23 C          -6.8120    5.3912   -4.4881 C.ar    1  LIG11      -0.0489
     24 C          -8.4760    2.9061    1.4731 C.3     1  LIG11      -0.0330
     25 C          -8.5129    1.8681    4.5422 C.3     1  LIG11      -0.0188
     26 C          -8.8807    4.1282   -4.9787 C.ar    1  LIG11       0.2271
     27 C         -10.8583    3.3463   -5.3420 C.ar    1  LIG11       0.1125
     28 C         -10.4762    4.1588   -6.3781 C.ar    1  LIG11       0.0663
     29 H          -4.3662    3.1656    0.9963 H       1  LIG11       0.1768
     30 H          -2.8201    5.7735    1.2983 H       1  LIG11       0.0637
     31 H          -2.8824    5.0683   -3.5954 H       1  LIG11       0.0624
     32 H          -5.9336    2.9966   -1.5829 H       1  LIG11       0.0624
     33 H          -5.0596    6.4976   -3.9509 H       1  LIG11       0.0624
     34 H          -0.7517    5.9867   -0.0017 H       1  LIG11       0.0618
     35 H          -0.7877    5.6200   -2.4563 H       1  LIG11       0.0618
     36 H          -7.9615    2.6329   -2.8760 H       1  LIG11       0.0625
     37 H          -7.0391    6.0570   -5.3204 H       1  LIG11       0.0625
     38 H          -8.1694    3.1728    0.4594 H       1  LIG11       0.0280
     39 H          -9.1662    3.6701    1.8387 H       1  LIG11       0.0280
     40 H          -9.0213    1.9554    1.4073 H       1  LIG11       0.0280
     41 H          -8.2284    1.6560    5.5796 H       1  LIG11       0.0294
     42 H          -8.9552    0.9605    4.1222 H       1  LIG11       0.0294
     43 H          -9.2751    2.6527    4.5568 H       1  LIG11       0.0294
     44 H         -11.7388    2.7682   -5.1040 H       1  LIG11       0.1046
     45 H         -11.0316    4.4133   -7.2699 H       1  LIG11       0.0862
@<TRIPOS>BOND
     1     1     3    2
     2     1     4    2
     3     1     6    1
     4     1     9    1
     5     2     7   ar
     6     2    13   ar
     7     5    26   ar
     8     5    27   ar
     9     6    13    1
    10     7    21   ar
    11     8    26   ar
    12     8    28   ar
    13     9    10   ar
    14     9    12   ar
    15    10    11    1
    16    10    14   ar
    17    11    16   ar
    18    11    17   ar
    19    12    18   ar
    20    13    15   ar
    21    14    19   ar
    22    15    21   ar
    23    15    24    1
    24    16    22   ar
    25    17    23   ar
    26    18    19   ar
    27    20    22   ar
    28    20    23   ar
    29    20    26    1
    30    21    25    1
    31    27    28   ar
    32     6    29    1
    33    12    30    1
    34    14    31    1
    35    16    32    1
    36    17    33    1
    37    18    34    1
    38    19    35    1
    39    22    36    1
    40    23    37    1
    41    24    38    1
    42    24    39    1
    43    24    40    1
    44    25    41    1
    45    25    42    1
    46    25    43    1
    47    27    44    1
    48    28    45    1
@<TRIPOS>MOLECULE
../1EDN/PCA1_17-21.pdb
 47 48 0 0 0
SMALL
GASTEIGER

@<TRIPOS>ATOM
      1  N         -4.6470   -0.3680   -1.6750 N.3    17  LEU17      -0.1231
      2  CA        -5.8920   -0.8550   -2.2480 C.3    17  LEU17       0.1693
      3  CB        -6.0770   -2.3450   -1.7480 C.3    17  LEU17       0.0284
      4  CG        -7.4170   -3.0590   -2.1890 C.3    17  LEU17       0.0019
      5  CD1       -7.4920   -3.1930   -3.7220 C.3    17  LEU17       0.0001
      6  CD2       -7.5340   -4.4610   -1.6100 C.3    17  LEU17       0.0001
      7  C         -7.0080    0.1010   -1.8270 C.2    17  LEU17       0.2592
      8  O         -7.6220    0.6590   -2.7680 O.2    17  LEU17      -0.2718
      9  N         -7.2890    0.1920   -0.5460 N.am   18  ASP18      -0.1960
     10  CA        -8.2730    1.1070    0.1120 C.3    18  ASP18       0.1840
     11  CB        -8.8290    0.4520    1.4200 C.3    18  ASP18       0.1450
     12  CG        -9.9140    1.2760    2.0640 C.2    18  ASP18       0.3671
     13  OD1      -10.8560    1.7240    1.3430 O.co2  18  ASP18      -0.2456
     14  OD2       -9.7710    1.5960    3.2830 O.co2  18  ASP18      -0.2456
     15  C         -7.6270    2.4530    0.4740 C.2    18  ASP18       0.2622
     16  O         -8.0770    3.4620   -0.0480 O.2    18  ASP18      -0.2715
     17  N         -6.6010    2.4770    1.3340 N.am   19  ILE19      -0.1963
     18  CA        -6.1660    3.6270    2.0790 C.3    19  ILE19       0.1727
     19  CB        -5.0730    3.3500    3.1520 C.3    19  ILE19       0.0290
     20  CG2       -4.5850    4.5470    3.9530 C.3    19  ILE19       0.0023
     21  CG1       -5.6210    2.1420    3.9730 C.3    19  ILE19       0.0022
     22  CD1       -6.7460    2.5740    4.8760 C.3    19  ILE19       0.0001
     23  C         -5.6740    4.7260    1.1170 C.2    19  ILE19       0.2616
     24  O         -5.9640    5.8590    1.4260 O.2    19  ILE19      -0.2715
     25  N         -4.8940    4.3400    0.1060 N.am   20  ILE20      -0.1963
     26  CA        -4.3700    5.1770   -0.9560 C.3    20  ILE20       0.1727
     27  CB        -2.8480    5.4620   -0.8180 C.3    20  ILE20       0.0290
     28  CG2       -2.5210    6.1670    0.5290 C.3    20  ILE20       0.0023
     29  CG1       -1.9270    4.2500   -0.9510 C.3    20  ILE20       0.0022
     30  CD1       -0.4520    4.4090   -1.0350 C.3    20  ILE20       0.0001
     31  C         -4.8260    4.7960   -2.3980 C.2    20  ILE20       0.2617
     32  O         -4.8210    3.6210   -2.7490 O.2    20  ILE20      -0.2715
     33  N         -5.1950    5.7710   -3.1960 N.am   21  TRP21      -0.1941
     34  CA        -5.6960    5.8160   -4.5740 C.3    21  TRP21       0.1982
     35  CB        -7.1930    6.0870   -4.6010 C.3    21  TRP21       0.0394
     36  CG        -8.1480    4.9210   -4.3560 C.3    21  TRP21       0.0475
     37  CD1       -8.4270    4.3170   -3.1580 C.3    21  TRP21       0.1166
     38  NE1       -9.4680    3.4340   -3.3480 N.pl3  21  TRP21      -0.2376
     39  CE2      -10.0400    3.5420   -4.5600 C.ar   21  TRP21       0.0614
     40  CZ2      -11.2420    2.9770   -5.0990 C.ar   21  TRP21       0.0158
     41  CH2      -11.3060    3.0240   -6.5170 C.ar   21  TRP21       0.0013
     42  CZ3      -10.3640    3.7270   -7.2650 C.ar   21  TRP21      -0.0002
     43  CE3       -9.2810    4.3830   -6.7050 C.ar   21  TRP21      -0.0030
     44  CD2       -9.0950    4.3440   -5.3390 C.ar   21  TRP21      -0.0059
     45  C         -4.8510    6.8160   -5.3910 C.2    21  TRP21       0.3842
     46  O         -5.0400    8.0490   -5.1500 O.co2  21  TRP21      -0.2437
     47  OXT       -3.9720    6.3760   -6.1010 O.co2  21  TRP21      -0.2437
@<TRIPOS>BOND
     1    42    43   ar
     2    42    41   ar
     3    43    44   ar
     4    41    40   ar
     5    47    45   ar
     6    45    46   ar
     7    45    34    1
     8    44    39   ar
     9    44    36    1
    10    40    39   ar
    11    35    34    1
    12    35    36    1
    13    34    33    1
    14    39    38    1
    15    36    37    1
    16     5     4    1
    17    38    37    1
    18    33    31   am
    19     8     7    2
    20    32    31    2
    21    31    26    1
    22     2     7    1
    23     2     3    1
    24     2     1    1
    25     4     3    1
    26     4     6    1
    27     7     9   am
    28    30    29    1
    29    26    27    1
    30    26    25    1
    31    29    27    1
    32    27    28    1
    33     9    10    1
    34    16    15    2
    35    25    23   am
    36    10    15    1
    37    10    11    1
    38    15    17   am
    39    23    24    2
    40    23    18    1
    41    17    18    1
    42    13    12   ar
    43    11    12    1
    44    12    14   ar
    45    18    19    1
    46    19    20    1
    47    19    21    1
    48    21    22    1
