@<TRIPOS>MOLECULE
9912992
 55 58 0 0 0
SMALL
GASTEIGER

@<TRIPOS>ATOM
      1 S          -7.4304    2.0862   -1.8956 S.O2    1  LIG11       0.0908
      2 O          -5.8818    5.4597   -2.8380 O.3     1  LIG11      -0.4435
      3 O          -6.0964    6.4266   -5.2953 O.3     1  LIG11      -0.4771
      4 O          -7.4631    2.8005   -0.6318 O.2     1  LIG11      -0.1484
      5 O          -8.4920    2.2577   -2.8629 O.2     1  LIG11      -0.1484
      6 O          -6.6317    6.0192   -0.0656 O.3     1  LIG11      -0.4914
      7 N          -5.9129    2.4463   -2.5647 N.pl3   1  LIG11      -0.1950
      8 N          -6.0824    2.3629   -4.8491 N.ar    1  LIG11      -0.2073
      9 N          -6.2543    4.2814   -6.2400 N.ar    1  LIG11      -0.1899
     10 N          -7.5217   -0.5176   -2.5043 N.ar    1  LIG11      -0.2351
     11 N          -6.6971    0.4575   -9.5131 N.ar    1  LIG11      -0.2632
     12 C          -5.9686    3.1756   -3.7851 C.ar    1  LIG11       0.1882
     13 C          -5.9547    4.5568   -3.8627 C.ar    1  LIG11       0.2307
     14 C          -7.2223    0.3477   -1.5026 C.ar    1  LIG11       0.1969
     15 C          -6.1065    5.0496   -5.1451 C.ar    1  LIG11       0.2638
     16 C          -6.2473    2.9526   -6.0437 C.ar    1  LIG11       0.1659
     17 C          -6.7459   -0.0224   -0.2519 C.ar    1  LIG11      -0.0160
     18 C          -6.4105    2.0931   -7.2264 C.ar    1  LIG11       0.0222
     19 C          -5.0052    5.2653   -1.8000 C.ar    1  LIG11       0.1702
     20 C          -6.8344   -2.3067   -1.0174 C.ar    1  LIG11      -0.0322
     21 C          -6.5477   -1.3782   -0.0128 C.ar    1  LIG11      -0.0541
     22 C          -7.3293   -1.8250   -2.2287 C.ar    1  LIG11       0.0327
     23 C          -5.4291    5.5224   -0.4879 C.ar    1  LIG11       0.1621
     24 C          -3.6953    4.8144   -2.0359 C.ar    1  LIG11      -0.0157
     25 C          -6.6509   -3.7756   -0.7985 C.3     1  LIG11      -0.0383
     26 C          -6.9982    2.5774   -8.4053 C.ar    1  LIG11      -0.0329
     27 C          -5.9830    0.7584   -7.2277 C.ar    1  LIG11      -0.0329
     28 C          -4.5689    5.2089    0.5719 C.ar    1  LIG11      -0.0163
     29 C          -2.8490    4.5161   -0.9677 C.ar    1  LIG11      -0.0581
     30 C          -3.2923    4.6978    0.3379 C.ar    1  LIG11      -0.0581
     31 C          -7.1215    1.7367   -9.5001 C.ar    1  LIG11       0.0282
     32 C          -6.1402   -0.0037   -8.3748 C.ar    1  LIG11       0.0282
     33 C          -6.0738    6.8528   -6.6538 C.3     1  LIG11       0.0805
     34 C          -7.4807    6.6499   -1.0143 C.3     1  LIG11       0.0790
     35 H          -5.3897    2.9197   -1.8328 H       1  LIG11       0.1754
     36 H          -6.5199    0.7150    0.5110 H       1  LIG11       0.0653
     37 H          -6.1670   -1.7036    0.9525 H       1  LIG11       0.0622
     38 H          -7.5901   -2.5028   -3.0383 H       1  LIG11       0.0833
     39 H          -3.3282    4.6711   -3.0494 H       1  LIG11       0.0655
     40 H          -6.0744   -3.9736    0.1115 H       1  LIG11       0.0278
     41 H          -6.1036   -4.2203   -1.6362 H       1  LIG11       0.0278
     42 H          -7.6238   -4.2672   -0.7022 H       1  LIG11       0.0278
     43 H          -7.3670    3.5968   -8.4702 H       1  LIG11       0.0640
     44 H          -5.5273    0.3157   -6.3468 H       1  LIG11       0.0640
     45 H          -4.9037    5.3700    1.5949 H       1  LIG11       0.0655
     46 H          -1.8456    4.1403   -1.1536 H       1  LIG11       0.0619
     47 H          -2.6430    4.4603    1.1769 H       1  LIG11       0.0619
     48 H          -7.5800    2.0832  -10.4219 H       1  LIG11       0.0830
     49 H          -5.8096   -1.0378   -8.4069 H       1  LIG11       0.0830
     50 H          -6.0145    7.9455   -6.6592 H       1  LIG11       0.0660
     51 H          -6.9929    6.5653   -7.1755 H       1  LIG11       0.0660
     52 H          -5.1889    6.4699   -7.1745 H       1  LIG11       0.0660
     53 H          -8.2613    7.1803   -0.4599 H       1  LIG11       0.0660
     54 H          -7.9790    5.9071   -1.6444 H       1  LIG11       0.0660
     55 H          -6.9429    7.3952   -1.6098 H       1  LIG11       0.0660
@<TRIPOS>BOND
     1     1     4    2
     2     1     5    2
     3     1     7    1
     4     1    14    1
     5     2    13    1
     6     2    19    1
     7     3    15    1
     8     3    33    1
     9     6    23    1
    10     6    34    1
    11     7    12    1
    12     8    12   ar
    13     8    16   ar
    14     9    15   ar
    15     9    16   ar
    16    10    14   ar
    17    10    22   ar
    18    11    31   ar
    19    11    32   ar
    20    12    13   ar
    21    13    15   ar
    22    14    17   ar
    23    16    18    1
    24    17    21   ar
    25    18    26   ar
    26    18    27   ar
    27    19    23   ar
    28    19    24   ar
    29    20    21   ar
    30    20    22   ar
    31    20    25    1
    32    23    28   ar
    33    24    29   ar
    34    26    31   ar
    35    27    32   ar
    36    28    30   ar
    37    29    30   ar
    38     7    35    1
    39    17    36    1
    40    21    37    1
    41    22    38    1
    42    24    39    1
    43    25    40    1
    44    25    41    1
    45    25    42    1
    46    26    43    1
    47    27    44    1
    48    28    45    1
    49    29    46    1
    50    30    47    1
    51    31    48    1
    52    32    49    1
    53    33    50    1
    54    33    51    1
    55    33    52    1
    56    34    53    1
    57    34    54    1
    58    34    55    1
@<TRIPOS>MOLECULE
../1EDN/PCA2_17-21.pdb
 47 48 0 0 0
SMALL
GASTEIGER

@<TRIPOS>ATOM
      1  N         -4.4680    0.3970   -1.5420 N.3    17  LEU17      -0.1231
      2  CA        -5.5730   -0.5090   -1.8150 C.3    17  LEU17       0.1693
      3  CB        -5.9860   -1.2020   -0.4580 C.3    17  LEU17       0.0284
      4  CG        -7.1280   -2.2100   -0.5390 C.3    17  LEU17       0.0019
      5  CD1       -6.7120   -3.3620   -1.4700 C.3    17  LEU17       0.0001
      6  CD2       -7.4980   -2.5610    0.9130 C.3    17  LEU17       0.0001
      7  C         -6.7000    0.2280   -2.5610 C.2    17  LEU17       0.2592
      8  O         -7.1860   -0.2780   -3.5510 O.2    17  LEU17      -0.2718
      9  N         -7.2650    1.2690   -1.9650 N.am   18  ASP18      -0.1960
     10  CA        -8.5260    1.8930   -2.2590 C.3    18  ASP18       0.1840
     11  CB        -9.6810    1.0560   -1.6740 C.3    18  ASP18       0.1450
     12  CG       -11.0010    1.6360   -2.1090 C.2    18  ASP18       0.3671
     13  OD1      -11.5960    2.3310   -1.2790 O.co2  18  ASP18      -0.2456
     14  OD2      -11.5460    1.2700   -3.1630 O.co2  18  ASP18      -0.2456
     15  C         -8.5570    3.3770   -1.7380 C.2    18  ASP18       0.2622
     16  O         -8.6960    4.2620   -2.5680 O.2    18  ASP18      -0.2715
     17  N         -8.4180    3.5730   -0.4160 N.am   19  ILE19      -0.1963
     18  CA        -8.3980    4.9040    0.1930 C.3    19  ILE19       0.1727
     19  CB        -8.4260    4.8620    1.7600 C.3    19  ILE19       0.0290
     20  CG2       -7.7310    6.0060    2.5190 C.3    19  ILE19       0.0023
     21  CG1       -9.9240    4.5740    2.2500 C.3    19  ILE19       0.0022
     22  CD1      -10.9740    5.6950    2.0110 C.3    19  ILE19       0.0001
     23  C         -7.1570    5.7010   -0.3260 C.2    19  ILE19       0.2616
     24  O         -7.3050    6.7970   -0.9200 O.2    19  ILE19      -0.2715
     25  N         -5.9900    5.0720   -0.2260 N.am   20  ILE20      -0.1963
     26  CA        -4.7520    5.3490   -0.9430 C.3    20  ILE20       0.1727
     27  CB        -3.5230    4.9310   -0.1080 C.3    20  ILE20       0.0290
     28  CG2       -2.1210    5.5060   -0.7390 C.3    20  ILE20       0.0023
     29  CG1       -3.5940    5.4760    1.3470 C.3    20  ILE20       0.0022
     30  CD1       -2.3570    5.1940    2.2260 C.3    20  ILE20       0.0001
     31  C         -4.7590    4.7050   -2.3650 C.2    20  ILE20       0.2617
     32  O         -4.2060    3.6200   -2.5900 O.2    20  ILE20      -0.2715
     33  N         -5.4060    5.3330   -3.3880 N.am   21  TRP21      -0.1938
     34  CA        -5.3950    4.7680   -4.7850 C.3    21  TRP21       0.2021
     35  CB        -6.6210    3.8650   -5.0310 C.3    21  TRP21       0.0612
     36  CG        -6.7890    3.3770   -6.4480 C.ar   21  TRP21       0.0007
     37  CD1       -7.1340    4.1960   -7.4760 C.ar   21  TRP21       0.0946
     38  NE1       -7.1740    3.4060   -8.6160 N.ar   21  TRP21      -0.2442
     39  CE2       -6.9360    2.0750   -8.3350 C.ar   21  TRP21       0.0810
     40  CZ2       -6.8300    1.0510   -9.2060 C.ar   21  TRP21       0.0191
     41  CH2       -6.3330   -0.2010   -8.7710 C.ar   21  TRP21       0.0015
     42  CZ3       -5.9560   -0.2520   -7.3640 C.ar   21  TRP21       0.0001
     43  CE3       -6.0150    0.8940   -6.5860 C.ar   21  TRP21       0.0012
     44  CD2       -6.6320    2.0560   -6.9830 C.ar   21  TRP21       0.0152
     45  C         -5.1960    5.8550   -5.8260 C.2    21  TRP21       0.3845
     46  O         -4.1840    5.6720   -6.5070 O.co2  21  TRP21      -0.2437
     47  OXT       -5.9640    6.8330   -6.0170 O.co2  21  TRP21      -0.2437
@<TRIPOS>BOND
     1    40    41   ar
     2    40    39   ar
     3    41    42   ar
     4    38    39   ar
     5    38    37   ar
     6    39    44   ar
     7    37    36   ar
     8    42    43   ar
     9    44    43   ar
    10    44    36   ar
    11    46    45   ar
    12    36    35    1
    13    47    45   ar
    14    45    34    1
    15    35    34    1
    16    34    33    1
    17     8     7    2
    18    33    31   am
    19    14    12   ar
    20    32    31    2
    21    16    15    2
    22     7     9   am
    23     7     2    1
    24    31    26    1
    25    10     9    1
    26    10    15    1
    27    10    11    1
    28    12    11    1
    29    12    13   ar
    30     2     1    1
    31     2     3    1
    32    15    17   am
    33     5     4    1
    34    26    25    1
    35    26    27    1
    36    24    23    2
    37    28    27    1
    38     4     3    1
    39     4     6    1
    40    17    18    1
    41    23    25   am
    42    23    18    1
    43    27    29    1
    44    18    19    1
    45    29    30    1
    46    19    21    1
    47    19    20    1
    48    22    21    1
