@<TRIPOS>MOLECULE
*****
 43 45 0 0 0
SMALL
GASTEIGER

@<TRIPOS>ATOM
      1 BR         -2.3008    6.5236   -0.0914 Br      1  LIG11      -0.0503
      2 BR         -7.9445    0.9875   -8.9724 Br      1  LIG11      -0.0472
      3 S          -9.3299    4.8982    1.8626 S.O2    1  LIG11       0.1079
      4 O          -7.7285    4.3566   -3.7070 O.3     1  LIG11      -0.4724
      5 O          -7.7590    5.3014    2.0188 O.2     1  LIG11      -0.1383
      6 O          -9.6044    4.7088    2.5232 O.2     1  LIG11      -0.1383
      7 O          -4.8356    4.2401   -5.4001 O.3     1  LIG11      -0.4590
      8 N          -9.1866    5.6886    0.2672 N.3     1  LIG11      -0.1906
      9 N          -8.1646    3.4256    0.8893 N.pl3   1  LIG11      -0.1891
     10 N         -10.0344    2.5222   -0.6027 N.ar    1  LIG11      -0.2186
     11 N          -9.2798    3.0799   -3.0100 N.ar    1  LIG11      -0.2008
     12 N          -6.8184    3.3369   -6.1115 N.ar    1  LIG11      -0.2022
     13 N          -4.8747    2.8178   -7.1681 N.ar    1  LIG11      -0.2022
     14 C          -7.5338    3.8759   -1.5177 C.ar    1  LIG11       0.0848
     15 C          -8.8055    3.0360   -0.4381 C.ar    1  LIG11       0.1532
     16 C          -6.2173    4.5206   -1.2645 C.ar    1  LIG11      -0.0094
     17 C          -8.0637    3.6200   -2.7815 C.ar    1  LIG11       0.2276
     18 C          -5.1705    4.8177   -1.7436 C.ar    1  LIG11      -0.0527
     19 C          -5.9564    4.8628   -0.5213 C.ar    1  LIG11      -0.0527
     20 C          -6.4181    5.0744   -3.7168 C.3     1  LIG11       0.1252
     21 C          -3.7230    5.9498   -2.1339 C.ar    1  LIG11      -0.0472
     22 C          -4.1131    4.9908    0.1240 C.ar    1  LIG11      -0.0472
     23 C         -10.0174    2.7908   -1.9372 C.ar    1  LIG11       0.1219
     24 C          -5.6202    5.3626   -4.9922 C.3     1  LIG11       0.1267
     25 C          -3.5774    5.6597   -0.5263 C.ar    1  LIG11       0.0179
     26 C          -5.4865    3.3870   -6.2611 C.ar    1  LIG11       0.3180
     27 C          -7.0672    2.1578   -7.1618 C.ar    1  LIG11       0.0483
     28 C          -5.5052    1.9703   -8.0563 C.ar    1  LIG11       0.0483
     29 C          -6.8067    1.7776   -8.0157 C.ar    1  LIG11       0.0543
     30 H          -9.8663    5.1141    0.4455 H       1  LIG11       0.1456
     31 H          -9.0646    7.2041    1.0747 H       1  LIG11       0.1456
     32 H          -7.6328    2.7842    1.3457 H       1  LIG11       0.1763
     33 H          -4.8226    4.7570   -3.5352 H       1  LIG11       0.0624
     34 H          -5.5811    4.6134    0.5930 H       1  LIG11       0.0624
     35 H          -7.1689    6.0112   -4.0304 H       1  LIG11       0.0731
     36 H          -6.5344    4.7689   -2.6911 H       1  LIG11       0.0731
     37 H          -3.5065    5.7747   -2.8526 H       1  LIG11       0.0629
     38 H          -4.2274    5.5495    1.2752 H       1  LIG11       0.0629
     39 H         -10.9557    2.3935   -2.1012 H       1  LIG11       0.1049
     40 H          -5.0504    6.1692   -5.4216 H       1  LIG11       0.0732
     41 H          -6.3166    5.5799   -5.7749 H       1  LIG11       0.0732
     42 H          -8.5107    2.4754   -6.8882 H       1  LIG11       0.0843
     43 H          -5.0018    1.4575   -8.7969 H       1  LIG11       0.0843
@<TRIPOS>BOND
     1     1    25    1
     2     2    29    1
     3     3     9    1
     4     3     8    1
     5     3     6    2
     6     3     5    2
     7     4    17    1
     8     4    20    1
     9     7    24    1
    10     7    26    1
    11     9    15    1
    12    10    15   ar
    13    10    23   ar
    14    11    17   ar
    15    11    23   ar
    16    12    26   ar
    17    12    27   ar
    18    13    26   ar
    19    13    28   ar
    20    14    15   ar
    21    14    17   ar
    22    16    18   ar
    23    16    19   ar
    24    16    14    1
    25    18    21   ar
    26    19    22   ar
    27    20    24    1
    28    21    25   ar
    29    22    25   ar
    30    27    29   ar
    31    28    29   ar
    32     8    30    1
    33     8    31    1
    34     9    32    1
    35    18    33    1
    36    19    34    1
    37    20    35    1
    38    20    36    1
    39    21    37    1
    40    22    38    1
    41    23    39    1
    42    24    40    1
    43    24    41    1
    44    27    42    1
    45    28    43    1
@<TRIPOS>MOLECULE
../1EDN/PCA2_17-21.pdb
 47 48 0 0 0
SMALL
GASTEIGER

@<TRIPOS>ATOM
      1  N         -4.4680    0.3970   -1.5420 N.3    17  LEU17      -0.1231
      2  CA        -5.5730   -0.5090   -1.8150 C.3    17  LEU17       0.1693
      3  CB        -5.9860   -1.2020   -0.4580 C.3    17  LEU17       0.0284
      4  CG        -7.1280   -2.2100   -0.5390 C.3    17  LEU17       0.0019
      5  CD1       -6.7120   -3.3620   -1.4700 C.3    17  LEU17       0.0001
      6  CD2       -7.4980   -2.5610    0.9130 C.3    17  LEU17       0.0001
      7  C         -6.7000    0.2280   -2.5610 C.2    17  LEU17       0.2592
      8  O         -7.1860   -0.2780   -3.5510 O.2    17  LEU17      -0.2718
      9  N         -7.2650    1.2690   -1.9650 N.am   18  ASP18      -0.1960
     10  CA        -8.5260    1.8930   -2.2590 C.3    18  ASP18       0.1840
     11  CB        -9.6810    1.0560   -1.6740 C.3    18  ASP18       0.1450
     12  CG       -11.0010    1.6360   -2.1090 C.2    18  ASP18       0.3671
     13  OD1      -11.5960    2.3310   -1.2790 O.co2  18  ASP18      -0.2456
     14  OD2      -11.5460    1.2700   -3.1630 O.co2  18  ASP18      -0.2456
     15  C         -8.5570    3.3770   -1.7380 C.2    18  ASP18       0.2622
     16  O         -8.6960    4.2620   -2.5680 O.2    18  ASP18      -0.2715
     17  N         -8.4180    3.5730   -0.4160 N.am   19  ILE19      -0.1963
     18  CA        -8.3980    4.9040    0.1930 C.3    19  ILE19       0.1727
     19  CB        -8.4260    4.8620    1.7600 C.3    19  ILE19       0.0290
     20  CG2       -7.7310    6.0060    2.5190 C.3    19  ILE19       0.0023
     21  CG1       -9.9240    4.5740    2.2500 C.3    19  ILE19       0.0022
     22  CD1      -10.9740    5.6950    2.0110 C.3    19  ILE19       0.0001
     23  C         -7.1570    5.7010   -0.3260 C.2    19  ILE19       0.2616
     24  O         -7.3050    6.7970   -0.9200 O.2    19  ILE19      -0.2715
     25  N         -5.9900    5.0720   -0.2260 N.am   20  ILE20      -0.1963
     26  CA        -4.7520    5.3490   -0.9430 C.3    20  ILE20       0.1727
     27  CB        -3.5230    4.9310   -0.1080 C.3    20  ILE20       0.0290
     28  CG2       -2.1210    5.5060   -0.7390 C.3    20  ILE20       0.0023
     29  CG1       -3.5940    5.4760    1.3470 C.3    20  ILE20       0.0022
     30  CD1       -2.3570    5.1940    2.2260 C.3    20  ILE20       0.0001
     31  C         -4.7590    4.7050   -2.3650 C.2    20  ILE20       0.2617
     32  O         -4.2060    3.6200   -2.5900 O.2    20  ILE20      -0.2715
     33  N         -5.4060    5.3330   -3.3880 N.am   21  TRP21      -0.1938
     34  CA        -5.3950    4.7680   -4.7850 C.3    21  TRP21       0.2021
     35  CB        -6.6210    3.8650   -5.0310 C.3    21  TRP21       0.0612
     36  CG        -6.7890    3.3770   -6.4480 C.ar   21  TRP21       0.0007
     37  CD1       -7.1340    4.1960   -7.4760 C.ar   21  TRP21       0.0946
     38  NE1       -7.1740    3.4060   -8.6160 N.ar   21  TRP21      -0.2442
     39  CE2       -6.9360    2.0750   -8.3350 C.ar   21  TRP21       0.0810
     40  CZ2       -6.8300    1.0510   -9.2060 C.ar   21  TRP21       0.0191
     41  CH2       -6.3330   -0.2010   -8.7710 C.ar   21  TRP21       0.0015
     42  CZ3       -5.9560   -0.2520   -7.3640 C.ar   21  TRP21       0.0001
     43  CE3       -6.0150    0.8940   -6.5860 C.ar   21  TRP21       0.0012
     44  CD2       -6.6320    2.0560   -6.9830 C.ar   21  TRP21       0.0152
     45  C         -5.1960    5.8550   -5.8260 C.2    21  TRP21       0.3845
     46  O         -4.1840    5.6720   -6.5070 O.co2  21  TRP21      -0.2437
     47  OXT       -5.9640    6.8330   -6.0170 O.co2  21  TRP21      -0.2437
@<TRIPOS>BOND
     1    40    41   ar
     2    40    39   ar
     3    41    42   ar
     4    38    39   ar
     5    38    37   ar
     6    39    44   ar
     7    37    36   ar
     8    42    43   ar
     9    44    43   ar
    10    44    36   ar
    11    46    45   ar
    12    36    35    1
    13    47    45   ar
    14    45    34    1
    15    35    34    1
    16    34    33    1
    17     8     7    2
    18    33    31   am
    19    14    12   ar
    20    32    31    2
    21    16    15    2
    22     7     9   am
    23     7     2    1
    24    31    26    1
    25    10     9    1
    26    10    15    1
    27    10    11    1
    28    12    11    1
    29    12    13   ar
    30     2     1    1
    31     2     3    1
    32    15    17   am
    33     5     4    1
    34    26    25    1
    35    26    27    1
    36    24    23    2
    37    28    27    1
    38     4     3    1
    39     4     6    1
    40    17    18    1
    41    23    25   am
    42    23    18    1
    43    27    29    1
    44    18    19    1
    45    29    30    1
    46    19    21    1
    47    19    20    1
    48    22    21    1
