@<TRIPOS>MOLECULE
177236
 51 53 0 0 0
SMALL
GASTEIGER

@<TRIPOS>ATOM
      1 O          -9.8890    1.9586   -1.5898 O.3     1  LIG11      -0.3632
      2 O          -7.0609    3.6852   -3.4339 O.3     1  LIG11      -0.4494
      3 O          -9.0124    5.5385   -3.1836 O.co2   1  LIG11      -0.5459
      4 O         -10.5482    4.0308   -3.9100 O.co2   1  LIG11      -0.5459
      5 O          -4.5834    5.9573   -6.6416 O.3     1  LIG11      -0.4794
      6 O          -6.9721    2.0194   -7.7262 O.3     1  LIG11      -0.4794
      7 N          -5.8935    4.8621   -5.0152 N.ar    1  LIG11      -0.1594
      8 N          -7.0974    2.9069   -5.6343 N.ar    1  LIG11      -0.1594
      9 C          -8.5620    2.5283   -1.8135 C.3     1  LIG11       0.1609
     10 C          -8.4203    3.2043   -3.2220 C.3     1  LIG11       0.1791
     11 C          -8.3310    3.5607   -0.6670 C.ar    1  LIG11      -0.0075
     12 C          -7.6044    1.3054   -1.5806 C.ar    1  LIG11      -0.0075
     13 C          -7.0529    4.0970   -0.4198 C.ar    1  LIG11      -0.0554
     14 C          -6.7517    0.7860   -2.5693 C.ar    1  LIG11      -0.0554
     15 C          -9.3827    3.9749    0.1725 C.ar    1  LIG11      -0.0554
     16 C          -7.6278    0.6376   -0.3358 C.ar    1  LIG11      -0.0554
     17 C          -9.4260    4.3664   -3.4222 C.2     1  LIG11       0.0856
     18 C         -10.3929    1.0745   -2.5792 C.3     1  LIG11       0.0382
     19 C          -6.8347    4.9983    0.6265 C.ar    1  LIG11      -0.0614
     20 C          -5.9379   -0.3241   -2.3184 C.ar    1  LIG11      -0.0614
     21 C          -9.1621    4.8679    1.2251 C.ar    1  LIG11      -0.0614
     22 C          -6.8192   -0.4743   -0.0858 C.ar    1  LIG11      -0.0614
     23 C          -7.8876    5.3788    1.4530 C.ar    1  LIG11      -0.0617
     24 C          -5.9696   -0.9527   -1.0783 C.ar    1  LIG11      -0.0617
     25 C          -6.7541    3.8688   -4.7625 C.ar    1  LIG11       0.3249
     26 C          -5.4606    4.9487   -6.2793 C.ar    1  LIG11       0.2240
     27 C          -6.6323    3.0442   -6.8816 C.ar    1  LIG11       0.2240
     28 C          -5.7923    4.0581   -7.2687 C.ar    1  LIG11       0.0617
     29 C          -4.3451    6.8789   -5.5808 C.3     1  LIG11       0.0804
     30 C          -7.5002    2.4819   -8.9640 C.3     1  LIG11       0.0804
     31 H          -8.6593    2.4462   -3.9772 H       1  LIG11       0.0834
     32 H          -6.2145    3.8223   -1.0558 H       1  LIG11       0.0621
     33 H          -6.7061    1.2221   -3.5618 H       1  LIG11       0.0621
     34 H         -10.3934    3.6111    0.0011 H       1  LIG11       0.0621
     35 H          -8.2969    0.9897    0.4479 H       1  LIG11       0.0621
     36 H         -11.3291    0.6546   -2.1993 H       1  LIG11       0.0524
     37 H          -9.7115    0.2419   -2.7704 H       1  LIG11       0.0524
     38 H         -10.6254    1.5880   -3.5123 H       1  LIG11       0.0524
     39 H          -5.8422    5.4116    0.7793 H       1  LIG11       0.0618
     40 H          -5.2851   -0.6949   -3.1042 H       1  LIG11       0.0618
     41 H          -9.9953    5.1754    1.8506 H       1  LIG11       0.0618
     42 H          -6.8609   -0.9638    0.8825 H       1  LIG11       0.0618
     43 H          -7.7209    6.0874    2.2573 H       1  LIG11       0.0618
     44 H          -5.3400   -1.8165   -0.8892 H       1  LIG11       0.0618
     45 H          -5.3836    4.1431   -8.2620 H       1  LIG11       0.0724
     46 H          -3.6722    7.6531   -5.9613 H       1  LIG11       0.0660
     47 H          -3.8436    6.3903   -4.7376 H       1  LIG11       0.0660
     48 H          -5.2711    7.3697   -5.2618 H       1  LIG11       0.0660
     49 H          -8.0683    1.6605   -9.4131 H       1  LIG11       0.0660
     50 H          -6.6882    2.7367   -9.6515 H       1  LIG11       0.0660
     51 H          -8.1798    3.3314   -8.8362 H       1  LIG11       0.0660
@<TRIPOS>BOND
     1     1     9    1
     2     1    18    1
     3     2    10    1
     4     2    25    1
     5     3    17   ar
     6     4    17   ar
     7     5    26    1
     8     5    29    1
     9     6    27    1
    10     6    30    1
    11     7    25   ar
    12     7    26   ar
    13     8    25   ar
    14     8    27   ar
    15     9    10    1
    16     9    11    1
    17     9    12    1
    18    10    17    1
    19    11    13   ar
    20    11    15   ar
    21    12    14   ar
    22    12    16   ar
    23    13    19   ar
    24    14    20   ar
    25    15    21   ar
    26    16    22   ar
    27    19    23   ar
    28    20    24   ar
    29    21    23   ar
    30    22    24   ar
    31    26    28   ar
    32    27    28   ar
    33    10    31    1
    34    13    32    1
    35    14    33    1
    36    15    34    1
    37    16    35    1
    38    18    36    1
    39    18    37    1
    40    18    38    1
    41    19    39    1
    42    20    40    1
    43    21    41    1
    44    22    42    1
    45    23    43    1
    46    24    44    1
    47    28    45    1
    48    29    46    1
    49    29    47    1
    50    29    48    1
    51    30    49    1
    52    30    50    1
    53    30    51    1
@<TRIPOS>MOLECULE
../1EDN/PCA2_17-21.pdb
 47 48 0 0 0
SMALL
GASTEIGER

@<TRIPOS>ATOM
      1  N         -4.4680    0.3970   -1.5420 N.3    17  LEU17      -0.1231
      2  CA        -5.5730   -0.5090   -1.8150 C.3    17  LEU17       0.1693
      3  CB        -5.9860   -1.2020   -0.4580 C.3    17  LEU17       0.0284
      4  CG        -7.1280   -2.2100   -0.5390 C.3    17  LEU17       0.0019
      5  CD1       -6.7120   -3.3620   -1.4700 C.3    17  LEU17       0.0001
      6  CD2       -7.4980   -2.5610    0.9130 C.3    17  LEU17       0.0001
      7  C         -6.7000    0.2280   -2.5610 C.2    17  LEU17       0.2592
      8  O         -7.1860   -0.2780   -3.5510 O.2    17  LEU17      -0.2718
      9  N         -7.2650    1.2690   -1.9650 N.am   18  ASP18      -0.1960
     10  CA        -8.5260    1.8930   -2.2590 C.3    18  ASP18       0.1840
     11  CB        -9.6810    1.0560   -1.6740 C.3    18  ASP18       0.1450
     12  CG       -11.0010    1.6360   -2.1090 C.2    18  ASP18       0.3671
     13  OD1      -11.5960    2.3310   -1.2790 O.co2  18  ASP18      -0.2456
     14  OD2      -11.5460    1.2700   -3.1630 O.co2  18  ASP18      -0.2456
     15  C         -8.5570    3.3770   -1.7380 C.2    18  ASP18       0.2622
     16  O         -8.6960    4.2620   -2.5680 O.2    18  ASP18      -0.2715
     17  N         -8.4180    3.5730   -0.4160 N.am   19  ILE19      -0.1963
     18  CA        -8.3980    4.9040    0.1930 C.3    19  ILE19       0.1727
     19  CB        -8.4260    4.8620    1.7600 C.3    19  ILE19       0.0290
     20  CG2       -7.7310    6.0060    2.5190 C.3    19  ILE19       0.0023
     21  CG1       -9.9240    4.5740    2.2500 C.3    19  ILE19       0.0022
     22  CD1      -10.9740    5.6950    2.0110 C.3    19  ILE19       0.0001
     23  C         -7.1570    5.7010   -0.3260 C.2    19  ILE19       0.2616
     24  O         -7.3050    6.7970   -0.9200 O.2    19  ILE19      -0.2715
     25  N         -5.9900    5.0720   -0.2260 N.am   20  ILE20      -0.1963
     26  CA        -4.7520    5.3490   -0.9430 C.3    20  ILE20       0.1727
     27  CB        -3.5230    4.9310   -0.1080 C.3    20  ILE20       0.0290
     28  CG2       -2.1210    5.5060   -0.7390 C.3    20  ILE20       0.0023
     29  CG1       -3.5940    5.4760    1.3470 C.3    20  ILE20       0.0022
     30  CD1       -2.3570    5.1940    2.2260 C.3    20  ILE20       0.0001
     31  C         -4.7590    4.7050   -2.3650 C.2    20  ILE20       0.2617
     32  O         -4.2060    3.6200   -2.5900 O.2    20  ILE20      -0.2715
     33  N         -5.4060    5.3330   -3.3880 N.am   21  TRP21      -0.1938
     34  CA        -5.3950    4.7680   -4.7850 C.3    21  TRP21       0.2021
     35  CB        -6.6210    3.8650   -5.0310 C.3    21  TRP21       0.0612
     36  CG        -6.7890    3.3770   -6.4480 C.ar   21  TRP21       0.0007
     37  CD1       -7.1340    4.1960   -7.4760 C.ar   21  TRP21       0.0946
     38  NE1       -7.1740    3.4060   -8.6160 N.ar   21  TRP21      -0.2442
     39  CE2       -6.9360    2.0750   -8.3350 C.ar   21  TRP21       0.0810
     40  CZ2       -6.8300    1.0510   -9.2060 C.ar   21  TRP21       0.0191
     41  CH2       -6.3330   -0.2010   -8.7710 C.ar   21  TRP21       0.0015
     42  CZ3       -5.9560   -0.2520   -7.3640 C.ar   21  TRP21       0.0001
     43  CE3       -6.0150    0.8940   -6.5860 C.ar   21  TRP21       0.0012
     44  CD2       -6.6320    2.0560   -6.9830 C.ar   21  TRP21       0.0152
     45  C         -5.1960    5.8550   -5.8260 C.2    21  TRP21       0.3845
     46  O         -4.1840    5.6720   -6.5070 O.co2  21  TRP21      -0.2437
     47  OXT       -5.9640    6.8330   -6.0170 O.co2  21  TRP21      -0.2437
@<TRIPOS>BOND
     1    40    41   ar
     2    40    39   ar
     3    41    42   ar
     4    38    39   ar
     5    38    37   ar
     6    39    44   ar
     7    37    36   ar
     8    42    43   ar
     9    44    43   ar
    10    44    36   ar
    11    46    45   ar
    12    36    35    1
    13    47    45   ar
    14    45    34    1
    15    35    34    1
    16    34    33    1
    17     8     7    2
    18    33    31   am
    19    14    12   ar
    20    32    31    2
    21    16    15    2
    22     7     9   am
    23     7     2    1
    24    31    26    1
    25    10     9    1
    26    10    15    1
    27    10    11    1
    28    12    11    1
    29    12    13   ar
    30     2     1    1
    31     2     3    1
    32    15    17   am
    33     5     4    1
    34    26    25    1
    35    26    27    1
    36    24    23    2
    37    28    27    1
    38     4     3    1
    39     4     6    1
    40    17    18    1
    41    23    25   am
    42    23    18    1
    43    27    29    1
    44    18    19    1
    45    29    30    1
    46    19    21    1
    47    19    20    1
    48    22    21    1
