@<TRIPOS>MOLECULE
HTS1204-03362316-01
 87 90 0 0 0
SMALL
USER_CHARGES

@<TRIPOS>ATOM
      1 C1         -5.7709    5.4008   -0.2477 C.ar    1  UNK11      -0.0199
      2 N1         -4.6625    4.4001    1.4146 N.ar    1  UNK11      -0.3494
      3 C2         -6.8247    2.9981   -7.0714 C.2     1  UNK11       0.3028
      4 C3         -5.8603    4.9463    1.0540 C.ar    1  UNK11       0.0086
      5 C4         -8.3596    3.9625   -1.3101 C.2     1  UNK11       0.2342
      6 C5         -4.4292    5.1333   -0.6782 C.ar    1  UNK11       0.0031
      7 C6         -7.0755    4.9108   -4.4205 C.2     1  UNK11       0.2340
      8 C7         -3.7711    4.4742    0.3671 C.ar    1  UNK11       0.0491
      9 N2         -6.0578    3.2539   -5.9604 N.am    1  UNK11      -0.2879
     10 N3         -6.8884    1.6499   -7.4074 N.am    1  UNK11      -0.2856
     11 N4         -6.7707    4.7125   -3.0898 N.am    1  UNK11      -0.3022
     12 N5         -8.6889    2.9395   -2.1727 N.am    1  UNK11      -0.3054
     13 C8         -7.6535    5.1483   -1.9997 C.3     1  UNK11       0.1034
     14 C9         -5.9044    4.5871   -5.3690 C.3     1  UNK11       0.1011
     15 C10        -9.4067    1.7166   -1.7474 C.3     1  UNK11       0.0680
     16 C11        -6.8945    6.0557   -1.0098 C.3     1  UNK11       0.0013
     17 C12       -10.6241    1.4050   -2.6651 C.2     1  UNK11       0.0623
     18 C13        -8.5512    0.4563   -1.9512 C.3     1  UNK11       0.0133
     19 O1         -7.3779    3.8693   -7.7344 O.2     1  UNK11      -0.2526
     20 O2         -8.1618    5.3357   -4.7943 O.2     1  UNK11      -0.2738
     21 O3         -8.6904    3.9885   -0.1264 O.2     1  UNK11      -0.2738
     22 N6         -7.1326   -0.0682   -0.0132 N.ar    1  UNK11      -0.2598
     23 O4        -10.5108    1.8680   -3.8427 O.co2   1  UNK11      -0.5479
     24 C14        -5.6438    5.7284   -6.3724 C.3     1  UNK11      -0.0236
     25 C15        -7.2189    0.5048   -1.2391 C.ar    1  UNK11       0.0434
     26 O5        -11.5521    0.7200   -2.1537 O.co2   1  UNK11      -0.5479
     27 C16        -4.3833    3.8325    2.7134 C.3     1  UNK11       0.0119
     28 C17        -5.9002    0.6567   -6.9746 C.3     1  UNK11       0.0161
     29 C18        -7.9113    1.2379   -8.3621 C.3     1  UNK11       0.0161
     30 C19        -2.4469    4.0192    0.2526 C.ar    1  UNK11      -0.0376
     31 C20        -3.7117    5.3771   -1.8687 C.ar    1  UNK11      -0.0523
     32 C21        -5.0953    7.0310   -5.7373 C.3     1  UNK11      -0.0446
     33 C22        -5.9480    0.0215    0.6277 C.ar    1  UNK11       0.0279
     34 C23        -6.1266    1.1286   -1.8470 C.ar    1  UNK11      -0.0403
     35 C24        -6.1778    7.8703   -5.0500 C.3     1  UNK11      -0.0626
     36 C25        -4.4288    7.8885   -6.8178 C.3     1  UNK11      -0.0626
     37 C26        -5.7783   -0.5880   -7.8599 C.3     1  UNK11      -0.0371
     38 C27        -7.4038    1.1805   -9.8044 C.3     1  UNK11      -0.0371
     39 C28        -2.3958    4.9197   -1.9983 C.ar    1  UNK11      -0.0611
     40 C29        -1.7763    4.2436   -0.9520 C.ar    1  UNK11      -0.0598
     41 C30        -4.8253    0.6367    0.1005 C.ar    1  UNK11      -0.0436
     42 C31        -4.9190    1.1981   -1.1645 C.ar    1  UNK11      -0.0586
     43 C32        -5.3574   -0.3271   -9.3085 C.3     1  UNK11      -0.0516
     44 C33        -5.9044    0.9355   -9.9714 C.3     1  UNK11      -0.0516
     45 H          -6.7044    4.9513    1.7340 H       1  UNK11       0.0812
     46 H          -6.1422    2.5064   -5.2888 H       1  UNK11       0.1510
     47 H          -6.0065    4.1058   -2.8240 H       1  UNK11       0.1495
     48 H          -8.8836    3.1829   -3.1463 H       1  UNK11       0.1494
     49 H          -8.4588    5.7536   -2.4347 H       1  UNK11       0.0598
     50 H          -4.9981    4.4884   -4.7575 H       1  UNK11       0.0595
     51 H          -9.7234    1.8170   -0.7039 H       1  UNK11       0.0564
     52 H          -7.6090    6.4732   -0.2876 H       1  UNK11       0.0337
     53 H          -6.4802    6.9144   -1.5547 H       1  UNK11       0.0337
     54 H          -8.3588    0.2790   -3.0193 H       1  UNK11       0.0350
     55 H          -9.0967   -0.4289   -1.5973 H       1  UNK11       0.0350
     56 H          -6.5536    5.9736   -6.9323 H       1  UNK11       0.0290
     57 H          -4.9138    5.3633   -7.1072 H       1  UNK11       0.0290
     58 H          -5.2121    4.0461    3.3938 H       1  UNK11       0.0456
     59 H          -3.4688    4.2865    3.1036 H       1  UNK11       0.0456
     60 H          -4.2607    2.7531    2.5999 H       1  UNK11       0.0456
     61 H          -6.1907    0.3430   -5.9650 H       1  UNK11       0.0465
     62 H          -4.9211    1.1438   -6.8962 H       1  UNK11       0.0465
     63 H          -8.7624    1.9288   -8.3137 H       1  UNK11       0.0465
     64 H          -8.3130    0.2691   -8.0457 H       1  UNK11       0.0465
     65 H          -1.9552    3.5024    1.0701 H       1  UNK11       0.0638
     66 H          -4.1798    5.9177   -2.6848 H       1  UNK11       0.0624
     67 H          -4.3280    6.7780   -4.9968 H       1  UNK11       0.0296
     68 H          -5.9304   -0.4291    1.6153 H       1  UNK11       0.0829
     69 H          -6.2364    1.5700   -2.8305 H       1  UNK11       0.0635
     70 H          -7.0388    8.0280   -5.7090 H       1  UNK11       0.0232
     71 H          -5.7894    8.8543   -4.7662 H       1  UNK11       0.0232
     72 H          -6.5309    7.4029   -4.1292 H       1  UNK11       0.0232
     73 H          -5.1426    8.1655   -7.6013 H       1  UNK11       0.0232
     74 H          -3.5991    7.3488   -7.2850 H       1  UNK11       0.0232
     75 H          -4.0220    8.8099   -6.3871 H       1  UNK11       0.0232
     76 H          -6.7211   -1.1466   -7.8566 H       1  UNK11       0.0280
     77 H          -5.0437   -1.2677   -7.4086 H       1  UNK11       0.0280
     78 H          -7.6357    2.1372  -10.2898 H       1  UNK11       0.0280
     79 H          -7.9733    0.4204  -10.3529 H       1  UNK11       0.0280
     80 H          -1.8533    5.0984   -2.9231 H       1  UNK11       0.0618
     81 H          -0.7534    3.8929   -1.0674 H       1  UNK11       0.0618
     82 H          -3.9030    0.6858    0.6656 H       1  UNK11       0.0633
     83 H          -4.0649    1.7019   -1.6082 H       1  UNK11       0.0619
     84 H          -5.6398   -1.1998   -9.9107 H       1  UNK11       0.0266
     85 H          -4.2615   -0.2777   -9.3517 H       1  UNK11       0.0266
     86 H          -5.3522    1.8062   -9.5955 H       1  UNK11       0.0266
     87 H          -5.6769    0.8901  -11.0444 H       1  UNK11       0.0266
@<TRIPOS>BOND
     1     2     4   ar
     2     3     9   am
     3     1     4   ar
     4     5    13    1
     5     1     6   ar
     6     7    11   am
     7     6     8   ar
     8     9    14    1
     9     3    10   am
    10    11    13    1
    11     5    12   am
    12    13    16    1
    13     7    14    1
    14    12    15    1
    15     1    16    1
    16    15    17    1
    17    15    18    1
    18     3    19    2
    19     7    20    2
    20     5    21    2
    21    22    25   ar
    22    17    23   ar
    23    14    24    1
    24    18    25    1
    25    17    26   ar
    26     2    27    1
    27    10    28    1
    28    10    29    1
    29     8    30   ar
    30     6    31   ar
    31    24    32    1
    32    22    33   ar
    33    25    34   ar
    34    32    35    1
    35    32    36    1
    36    28    37    1
    37    29    38    1
    38    31    39   ar
    39    39    40   ar
    40    41    42   ar
    41    34    42   ar
    42    37    43    1
    43    38    44    1
    44     2     8   ar
    45    30    40   ar
    46    33    41   ar
    47    43    44    1
    48     4    45    1
    49     9    46    1
    50    11    47    1
    51    12    48    1
    52    13    49    1
    53    14    50    1
    54    15    51    1
    55    16    52    1
    56    16    53    1
    57    18    54    1
    58    18    55    1
    59    24    56    1
    60    24    57    1
    61    27    58    1
    62    27    59    1
    63    27    60    1
    64    28    61    1
    65    28    62    1
    66    29    63    1
    67    29    64    1
    68    30    65    1
    69    31    66    1
    70    32    67    1
    71    33    68    1
    72    34    69    1
    73    35    70    1
    74    35    71    1
    75    35    72    1
    76    36    73    1
    77    36    74    1
    78    36    75    1
    79    37    76    1
    80    37    77    1
    81    38    78    1
    82    38    79    1
    83    39    80    1
    84    40    81    1
    85    41    82    1
    86    42    83    1
    87    43    84    1
    88    43    85    1
    89    44    86    1
    90    44    87    1
@<TRIPOS>MOLECULE
../1EDN/PCA2_17-21.pdb
 47 48 0 0 0
SMALL
GASTEIGER

@<TRIPOS>ATOM
      1  N         -4.4680    0.3970   -1.5420 N.3    17  LEU17      -0.1231
      2  CA        -5.5730   -0.5090   -1.8150 C.3    17  LEU17       0.1693
      3  CB        -5.9860   -1.2020   -0.4580 C.3    17  LEU17       0.0284
      4  CG        -7.1280   -2.2100   -0.5390 C.3    17  LEU17       0.0019
      5  CD1       -6.7120   -3.3620   -1.4700 C.3    17  LEU17       0.0001
      6  CD2       -7.4980   -2.5610    0.9130 C.3    17  LEU17       0.0001
      7  C         -6.7000    0.2280   -2.5610 C.2    17  LEU17       0.2592
      8  O         -7.1860   -0.2780   -3.5510 O.2    17  LEU17      -0.2718
      9  N         -7.2650    1.2690   -1.9650 N.am   18  ASP18      -0.1960
     10  CA        -8.5260    1.8930   -2.2590 C.3    18  ASP18       0.1840
     11  CB        -9.6810    1.0560   -1.6740 C.3    18  ASP18       0.1450
     12  CG       -11.0010    1.6360   -2.1090 C.2    18  ASP18       0.3671
     13  OD1      -11.5960    2.3310   -1.2790 O.co2  18  ASP18      -0.2456
     14  OD2      -11.5460    1.2700   -3.1630 O.co2  18  ASP18      -0.2456
     15  C         -8.5570    3.3770   -1.7380 C.2    18  ASP18       0.2622
     16  O         -8.6960    4.2620   -2.5680 O.2    18  ASP18      -0.2715
     17  N         -8.4180    3.5730   -0.4160 N.am   19  ILE19      -0.1963
     18  CA        -8.3980    4.9040    0.1930 C.3    19  ILE19       0.1727
     19  CB        -8.4260    4.8620    1.7600 C.3    19  ILE19       0.0290
     20  CG2       -7.7310    6.0060    2.5190 C.3    19  ILE19       0.0023
     21  CG1       -9.9240    4.5740    2.2500 C.3    19  ILE19       0.0022
     22  CD1      -10.9740    5.6950    2.0110 C.3    19  ILE19       0.0001
     23  C         -7.1570    5.7010   -0.3260 C.2    19  ILE19       0.2616
     24  O         -7.3050    6.7970   -0.9200 O.2    19  ILE19      -0.2715
     25  N         -5.9900    5.0720   -0.2260 N.am   20  ILE20      -0.1963
     26  CA        -4.7520    5.3490   -0.9430 C.3    20  ILE20       0.1727
     27  CB        -3.5230    4.9310   -0.1080 C.3    20  ILE20       0.0290
     28  CG2       -2.1210    5.5060   -0.7390 C.3    20  ILE20       0.0023
     29  CG1       -3.5940    5.4760    1.3470 C.3    20  ILE20       0.0022
     30  CD1       -2.3570    5.1940    2.2260 C.3    20  ILE20       0.0001
     31  C         -4.7590    4.7050   -2.3650 C.2    20  ILE20       0.2617
     32  O         -4.2060    3.6200   -2.5900 O.2    20  ILE20      -0.2715
     33  N         -5.4060    5.3330   -3.3880 N.am   21  TRP21      -0.1938
     34  CA        -5.3950    4.7680   -4.7850 C.3    21  TRP21       0.2021
     35  CB        -6.6210    3.8650   -5.0310 C.3    21  TRP21       0.0612
     36  CG        -6.7890    3.3770   -6.4480 C.ar   21  TRP21       0.0007
     37  CD1       -7.1340    4.1960   -7.4760 C.ar   21  TRP21       0.0946
     38  NE1       -7.1740    3.4060   -8.6160 N.ar   21  TRP21      -0.2442
     39  CE2       -6.9360    2.0750   -8.3350 C.ar   21  TRP21       0.0810
     40  CZ2       -6.8300    1.0510   -9.2060 C.ar   21  TRP21       0.0191
     41  CH2       -6.3330   -0.2010   -8.7710 C.ar   21  TRP21       0.0015
     42  CZ3       -5.9560   -0.2520   -7.3640 C.ar   21  TRP21       0.0001
     43  CE3       -6.0150    0.8940   -6.5860 C.ar   21  TRP21       0.0012
     44  CD2       -6.6320    2.0560   -6.9830 C.ar   21  TRP21       0.0152
     45  C         -5.1960    5.8550   -5.8260 C.2    21  TRP21       0.3845
     46  O         -4.1840    5.6720   -6.5070 O.co2  21  TRP21      -0.2437
     47  OXT       -5.9640    6.8330   -6.0170 O.co2  21  TRP21      -0.2437
@<TRIPOS>BOND
     1    40    41   ar
     2    40    39   ar
     3    41    42   ar
     4    38    39   ar
     5    38    37   ar
     6    39    44   ar
     7    37    36   ar
     8    42    43   ar
     9    44    43   ar
    10    44    36   ar
    11    46    45   ar
    12    36    35    1
    13    47    45   ar
    14    45    34    1
    15    35    34    1
    16    34    33    1
    17     8     7    2
    18    33    31   am
    19    14    12   ar
    20    32    31    2
    21    16    15    2
    22     7     9   am
    23     7     2    1
    24    31    26    1
    25    10     9    1
    26    10    15    1
    27    10    11    1
    28    12    11    1
    29    12    13   ar
    30     2     1    1
    31     2     3    1
    32    15    17   am
    33     5     4    1
    34    26    25    1
    35    26    27    1
    36    24    23    2
    37    28    27    1
    38     4     3    1
    39     4     6    1
    40    17    18    1
    41    23    25   am
    42    23    18    1
    43    27    29    1
    44    18    19    1
    45    29    30    1
    46    19    21    1
    47    19    20    1
    48    22    21    1
