@<TRIPOS>MOLECULE
16004692
 52 54 0 0 0
SMALL
GASTEIGER

@<TRIPOS>ATOM
      1 BR         -9.9845    0.0987   -0.8576 Br      1  LIG11      -0.0503
      2 BR        -10.3063    4.5786    1.5855 Br      1  LIG11      -0.0472
      3 S          -7.2062    1.6495   -7.1789 S.O2    1  LIG11       0.1104
      4 O          -5.1371    4.5141   -2.5405 O.3     1  LIG11      -0.4724
      5 O          -5.9237    1.1870   -6.7113 O.2     1  LIG11      -0.1381
      6 O          -8.3810    0.8118   -7.1439 O.2     1  LIG11      -0.1381
      7 O          -4.9157    6.3909   -0.1356 O.3     1  LIG11      -0.4590
      8 N          -7.0819    2.2704   -8.7185 N.3     1  LIG11      -0.1771
      9 N          -7.6464    3.0505   -6.3773 N.pl3   1  LIG11      -0.1889
     10 N          -5.8404    4.4826   -6.5858 N.ar    1  LIG11      -0.2186
     11 N          -4.5717    5.2276   -4.7080 N.ar    1  LIG11      -0.2008
     12 N          -7.1716    6.7474   -0.0141 N.ar    1  LIG11      -0.2022
     13 N          -6.2527    4.6864    0.7647 N.ar    1  LIG11      -0.2022
     14 C          -5.8185    2.0993   -9.4406 C.3     1  LIG11       0.0185
     15 C          -6.3851    3.6689   -4.3621 C.ar    1  LIG11       0.0848
     16 C          -6.5809    3.7492   -5.7380 C.ar    1  LIG11       0.1532
     17 C          -6.0878    2.1735  -10.9439 C.3     1  LIG11      -0.0416
     18 C          -7.2053    2.8274   -3.4827 C.ar    1  LIG11      -0.0094
     19 C          -5.3517    4.4730   -3.9075 C.ar    1  LIG11       0.2276
     20 C          -6.9355    1.0092  -11.4437 C.3     1  LIG11      -0.0641
     21 C          -7.0431    1.4309   -3.4739 C.ar    1  LIG11      -0.0527
     22 C          -8.2022    3.3896   -2.6705 C.ar    1  LIG11      -0.0527
     23 C          -4.0412    5.3455   -2.1442 C.3     1  LIG11       0.1252
     24 C          -7.8698    0.6161   -2.6971 C.ar    1  LIG11      -0.0472
     25 C          -9.0300    2.5758   -1.8922 C.ar    1  LIG11      -0.0472
     26 C          -4.8552    5.1839   -6.0152 C.ar    1  LIG11       0.1219
     27 C          -3.9916    5.4109   -0.6171 C.3     1  LIG11       0.1267
     28 C          -8.8607    1.1935   -1.9101 C.ar    1  LIG11       0.0179
     29 C          -6.1555    5.8910    0.1786 C.ar    1  LIG11       0.3180
     30 C          -8.3847    6.3326    0.4066 C.ar    1  LIG11       0.0483
     31 C          -7.4910    4.3204    1.1608 C.ar    1  LIG11       0.0483
     32 C          -8.6032    5.1155    1.0083 C.ar    1  LIG11       0.0543
     33 H          -7.4869    3.2043   -8.7641 H       1  LIG11       0.1493
     34 H          -8.3910    2.7895   -5.7307 H       1  LIG11       0.1763
     35 H          -5.3570    1.1336   -9.2100 H       1  LIG11       0.0442
     36 H          -5.1290    2.8984   -9.1502 H       1  LIG11       0.0442
     37 H          -5.1300    2.1637  -11.4767 H       1  LIG11       0.0275
     38 H          -6.5887    3.1162  -11.1939 H       1  LIG11       0.0275
     39 H          -6.4653    0.0498  -11.2050 H       1  LIG11       0.0230
     40 H          -7.0550    1.0672  -12.5302 H       1  LIG11       0.0230
     41 H          -7.9349    1.0214  -10.9969 H       1  LIG11       0.0230
     42 H          -6.2695    0.9601   -4.0808 H       1  LIG11       0.0624
     43 H          -8.3436    4.4690   -2.6423 H       1  LIG11       0.0624
     44 H          -4.1645    6.3601   -2.5429 H       1  LIG11       0.0731
     45 H          -3.1091    4.9008   -2.5120 H       1  LIG11       0.0731
     46 H          -7.7326   -0.4624   -2.7210 H       1  LIG11       0.0629
     47 H          -9.8066    3.0274   -1.2823 H       1  LIG11       0.0629
     48 H          -4.2318    5.7818   -6.6717 H       1  LIG11       0.1049
     49 H          -4.1203    4.4223   -0.1624 H       1  LIG11       0.0732
     50 H          -3.0004    5.7707   -0.3189 H       1  LIG11       0.0732
     51 H          -9.1911    7.0412    0.2414 H       1  LIG11       0.0843
     52 H          -7.5515    3.3395    1.6235 H       1  LIG11       0.0843
@<TRIPOS>BOND
     1     1    28    1
     2     2    32    1
     3     3     5    2
     4     3     6    2
     5     3     8    1
     6     3     9    1
     7     4    19    1
     8     4    23    1
     9     7    27    1
    10     7    29    1
    11     8    14    1
    12     9    16    1
    13    10    16   ar
    14    10    26   ar
    15    11    19   ar
    16    11    26   ar
    17    12    29   ar
    18    12    30   ar
    19    13    29   ar
    20    13    31   ar
    21    14    17    1
    22    15    16   ar
    23    15    18    1
    24    15    19   ar
    25    17    20    1
    26    18    21   ar
    27    18    22   ar
    28    21    24   ar
    29    22    25   ar
    30    23    27    1
    31    24    28   ar
    32    25    28   ar
    33    30    32   ar
    34    31    32   ar
    35     8    33    1
    36     9    34    1
    37    14    35    1
    38    14    36    1
    39    17    37    1
    40    17    38    1
    41    20    39    1
    42    20    40    1
    43    20    41    1
    44    21    42    1
    45    22    43    1
    46    23    44    1
    47    23    45    1
    48    24    46    1
    49    25    47    1
    50    26    48    1
    51    27    49    1
    52    27    50    1
    53    30    51    1
    54    31    52    1
@<TRIPOS>MOLECULE
../1EDN/PCA2_17-21.pdb
 47 48 0 0 0
SMALL
GASTEIGER

@<TRIPOS>ATOM
      1  N         -4.4680    0.3970   -1.5420 N.3    17  LEU17      -0.1231
      2  CA        -5.5730   -0.5090   -1.8150 C.3    17  LEU17       0.1693
      3  CB        -5.9860   -1.2020   -0.4580 C.3    17  LEU17       0.0284
      4  CG        -7.1280   -2.2100   -0.5390 C.3    17  LEU17       0.0019
      5  CD1       -6.7120   -3.3620   -1.4700 C.3    17  LEU17       0.0001
      6  CD2       -7.4980   -2.5610    0.9130 C.3    17  LEU17       0.0001
      7  C         -6.7000    0.2280   -2.5610 C.2    17  LEU17       0.2592
      8  O         -7.1860   -0.2780   -3.5510 O.2    17  LEU17      -0.2718
      9  N         -7.2650    1.2690   -1.9650 N.am   18  ASP18      -0.1960
     10  CA        -8.5260    1.8930   -2.2590 C.3    18  ASP18       0.1840
     11  CB        -9.6810    1.0560   -1.6740 C.3    18  ASP18       0.1450
     12  CG       -11.0010    1.6360   -2.1090 C.2    18  ASP18       0.3671
     13  OD1      -11.5960    2.3310   -1.2790 O.co2  18  ASP18      -0.2456
     14  OD2      -11.5460    1.2700   -3.1630 O.co2  18  ASP18      -0.2456
     15  C         -8.5570    3.3770   -1.7380 C.2    18  ASP18       0.2622
     16  O         -8.6960    4.2620   -2.5680 O.2    18  ASP18      -0.2715
     17  N         -8.4180    3.5730   -0.4160 N.am   19  ILE19      -0.1963
     18  CA        -8.3980    4.9040    0.1930 C.3    19  ILE19       0.1727
     19  CB        -8.4260    4.8620    1.7600 C.3    19  ILE19       0.0290
     20  CG2       -7.7310    6.0060    2.5190 C.3    19  ILE19       0.0023
     21  CG1       -9.9240    4.5740    2.2500 C.3    19  ILE19       0.0022
     22  CD1      -10.9740    5.6950    2.0110 C.3    19  ILE19       0.0001
     23  C         -7.1570    5.7010   -0.3260 C.2    19  ILE19       0.2616
     24  O         -7.3050    6.7970   -0.9200 O.2    19  ILE19      -0.2715
     25  N         -5.9900    5.0720   -0.2260 N.am   20  ILE20      -0.1963
     26  CA        -4.7520    5.3490   -0.9430 C.3    20  ILE20       0.1727
     27  CB        -3.5230    4.9310   -0.1080 C.3    20  ILE20       0.0290
     28  CG2       -2.1210    5.5060   -0.7390 C.3    20  ILE20       0.0023
     29  CG1       -3.5940    5.4760    1.3470 C.3    20  ILE20       0.0022
     30  CD1       -2.3570    5.1940    2.2260 C.3    20  ILE20       0.0001
     31  C         -4.7590    4.7050   -2.3650 C.2    20  ILE20       0.2617
     32  O         -4.2060    3.6200   -2.5900 O.2    20  ILE20      -0.2715
     33  N         -5.4060    5.3330   -3.3880 N.am   21  TRP21      -0.1938
     34  CA        -5.3950    4.7680   -4.7850 C.3    21  TRP21       0.2021
     35  CB        -6.6210    3.8650   -5.0310 C.3    21  TRP21       0.0612
     36  CG        -6.7890    3.3770   -6.4480 C.ar   21  TRP21       0.0007
     37  CD1       -7.1340    4.1960   -7.4760 C.ar   21  TRP21       0.0946
     38  NE1       -7.1740    3.4060   -8.6160 N.ar   21  TRP21      -0.2442
     39  CE2       -6.9360    2.0750   -8.3350 C.ar   21  TRP21       0.0810
     40  CZ2       -6.8300    1.0510   -9.2060 C.ar   21  TRP21       0.0191
     41  CH2       -6.3330   -0.2010   -8.7710 C.ar   21  TRP21       0.0015
     42  CZ3       -5.9560   -0.2520   -7.3640 C.ar   21  TRP21       0.0001
     43  CE3       -6.0150    0.8940   -6.5860 C.ar   21  TRP21       0.0012
     44  CD2       -6.6320    2.0560   -6.9830 C.ar   21  TRP21       0.0152
     45  C         -5.1960    5.8550   -5.8260 C.2    21  TRP21       0.3845
     46  O         -4.1840    5.6720   -6.5070 O.co2  21  TRP21      -0.2437
     47  OXT       -5.9640    6.8330   -6.0170 O.co2  21  TRP21      -0.2437
@<TRIPOS>BOND
     1    40    41   ar
     2    40    39   ar
     3    41    42   ar
     4    38    39   ar
     5    38    37   ar
     6    39    44   ar
     7    37    36   ar
     8    42    43   ar
     9    44    43   ar
    10    44    36   ar
    11    46    45   ar
    12    36    35    1
    13    47    45   ar
    14    45    34    1
    15    35    34    1
    16    34    33    1
    17     8     7    2
    18    33    31   am
    19    14    12   ar
    20    32    31    2
    21    16    15    2
    22     7     9   am
    23     7     2    1
    24    31    26    1
    25    10     9    1
    26    10    15    1
    27    10    11    1
    28    12    11    1
    29    12    13   ar
    30     2     1    1
    31     2     3    1
    32    15    17   am
    33     5     4    1
    34    26    25    1
    35    26    27    1
    36    24    23    2
    37    28    27    1
    38     4     3    1
    39     4     6    1
    40    17    18    1
    41    23    25   am
    42    23    18    1
    43    27    29    1
    44    18    19    1
    45    29    30    1
    46    19    21    1
    47    19    20    1
    48    22    21    1
