@<TRIPOS>MOLECULE
01012527H
 86 88 0 0 0
SMALL
GASTEIGER

@<TRIPOS>ATOM
      1 C          -5.4783    3.1412   -3.4775 C.3     1  LIG11       0.0531
      2 C          -6.5848    2.8238   -2.4797 C.3     1  LIG11      -0.0111
      3 C          -6.1072    3.8321   -4.6859 C.3     1  LIG11       0.0375
      4 C          -4.6334    4.1033   -2.6408 C.2     1  LIG11       0.0509
      5 N          -7.6688    3.8886   -2.7830 N.4     1  LIG11       0.2448
      6 C          -7.2664    1.4380   -2.6276 C.3     1  LIG11      -0.0039
      7 C          -6.3954    3.0294   -5.9529 C.ar    1  LIG11      -0.0313
      8 C          -7.3539    4.5235   -4.1147 C.3     1  LIG11      -0.0234
      9 O          -3.9163    3.5441   -1.7740 O.co2   1  LIG11      -0.5493
     10 O          -4.8580    5.3297   -2.8305 O.co2   1  LIG11      -0.5493
     11 C          -7.7807    4.9397   -1.6657 C.3     1  LIG11       0.0465
     12 C          -6.5851    0.1945   -1.9698 C.3     1  LIG11      -0.0298
     13 C          -6.0099    1.6943   -6.1247 C.ar    1  LIG11      -0.0122
     14 C          -6.9722    3.7121   -7.0650 C.ar    1  LIG11      -0.0124
     15 C          -8.3557    4.3588   -0.3686 C.2     1  LIG11       0.2608
     16 C          -7.6568   -0.9194   -1.7269 C.3     1  LIG11      -0.0479
     17 C          -5.4605   -0.3729   -2.8502 C.3     1  LIG11      -0.0596
     18 C          -5.9842    0.5369   -0.5907 C.3     1  LIG11      -0.0596
     19 C          -6.2351    1.0899   -7.3463 C.ar    1  LIG11       0.1702
     20 C          -7.1880    3.0817   -8.2987 C.ar    1  LIG11       0.1656
     21 N          -8.2227    5.1013    0.7983 N.am    1  LIG11      -0.2971
     22 O          -8.9380    3.2697   -0.4059 O.2     1  LIG11      -0.2697
     23 C          -8.4441   -1.3766   -2.9607 C.3     1  LIG11      -0.0554
     24 C          -6.8094    1.7574   -8.4010 C.ar    1  LIG11       0.2075
     25 O          -5.9024   -0.1923   -7.6576 O.3     1  LIG11      -0.4525
     26 O          -7.7276    3.6553   -9.4122 O.3     1  LIG11      -0.4913
     27 C          -7.6041    6.4319    0.8645 C.3     1  LIG11       0.0148
     28 C          -8.6334    4.4898    2.0645 C.3     1  LIG11       0.0148
     29 C          -9.4412   -2.4694   -2.5986 C.3     1  LIG11      -0.0653
     30 O          -6.9103    0.9696   -9.5092 O.3     1  LIG11      -0.4489
     31 C          -6.2815   -0.2401   -9.0479 C.3     1  LIG11       0.2334
     32 C          -7.9273    5.0617   -9.3885 C.3     1  LIG11       0.0790
     33 C          -6.1227    6.3748    1.2400 C.3     1  LIG11      -0.0374
     34 C         -10.1504    4.4573    2.2723 C.3     1  LIG11      -0.0374
     35 C          -5.5118    7.7765    1.2549 C.3     1  LIG11      -0.0545
     36 C         -10.7803    5.8485    2.3356 C.3     1  LIG11      -0.0545
     37 C          -4.0596    7.7537    1.7020 C.3     1  LIG11      -0.0652
     38 C         -12.2714    5.7656    2.6231 C.3     1  LIG11      -0.0652
     39 H          -4.8381    2.2969   -3.7297 H       1  LIG11       0.0424
     40 H          -6.3141    2.9667   -1.4298 H       1  LIG11       0.0858
     41 H          -5.4188    4.6086   -5.0504 H       1  LIG11       0.0409
     42 H          -8.5845    3.4239   -2.8041 H       1  LIG11       0.2042
     43 H          -7.4622    1.2352   -3.6866 H       1  LIG11       0.0325
     44 H          -8.2596    1.5132   -2.1647 H       1  LIG11       0.0325
     45 H          -8.2550    4.4082   -4.7252 H       1  LIG11       0.0821
     46 H          -7.1792    5.5937   -3.9597 H       1  LIG11       0.0821
     47 H          -8.4776    5.7015   -2.0302 H       1  LIG11       0.0913
     48 H          -6.7960    5.3672   -1.4972 H       1  LIG11       0.0913
     49 H          -5.5089    1.1236   -5.3548 H       1  LIG11       0.0658
     50 H          -7.2177    4.7650   -6.9518 H       1  LIG11       0.0658
     51 H          -8.3736   -0.5616   -0.9747 H       1  LIG11       0.0270
     52 H          -7.1677   -1.7965   -1.2810 H       1  LIG11       0.0270
     53 H          -4.6127    0.3138   -2.9185 H       1  LIG11       0.0235
     54 H          -5.8081   -0.5851   -3.8651 H       1  LIG11       0.0235
     55 H          -5.0743   -1.3119   -2.4358 H       1  LIG11       0.0235
     56 H          -5.1268    1.2116   -0.6769 H       1  LIG11       0.0235
     57 H          -5.6257   -0.3656   -0.0815 H       1  LIG11       0.0235
     58 H          -6.7288    1.0095    0.0596 H       1  LIG11       0.0235
     59 H          -7.7669   -1.7602   -3.7300 H       1  LIG11       0.0263
     60 H          -8.9959   -0.5371   -3.3960 H       1  LIG11       0.0263
     61 H          -8.1597    7.0283    1.5972 H       1  LIG11       0.0464
     62 H          -7.7254    6.9359   -0.0993 H       1  LIG11       0.0464
     63 H          -8.1499    5.0156    2.8959 H       1  LIG11       0.0464
     64 H          -8.2545    3.4601    2.0768 H       1  LIG11       0.0464
     65 H          -8.9290   -3.3529   -2.2043 H       1  LIG11       0.0230
     66 H         -10.0098   -2.7728   -3.4832 H       1  LIG11       0.0230
     67 H         -10.1519   -2.1185   -1.8430 H       1  LIG11       0.0230
     68 H          -6.9756   -1.0751   -9.1944 H       1  LIG11       0.1166
     69 H          -5.3831   -0.4213   -9.6503 H       1  LIG11       0.1166
     70 H          -8.2754    5.3679  -10.3797 H       1  LIG11       0.0660
     71 H          -6.9922    5.5942   -9.1847 H       1  LIG11       0.0660
     72 H          -8.7022    5.3339   -8.6645 H       1  LIG11       0.0660
     73 H          -5.5770    5.7395    0.5320 H       1  LIG11       0.0280
     74 H          -6.0076    5.9117    2.2275 H       1  LIG11       0.0280
     75 H         -10.3543    3.9263    3.2103 H       1  LIG11       0.0280
     76 H         -10.6294    3.8793    1.4740 H       1  LIG11       0.0280
     77 H          -6.0827    8.4254    1.9292 H       1  LIG11       0.0263
     78 H          -5.5731    8.2175    0.2529 H       1  LIG11       0.0263
     79 H         -10.6342    6.3728    1.3847 H       1  LIG11       0.0263
     80 H         -10.2949    6.4442    3.1171 H       1  LIG11       0.0263
     81 H          -3.9697    7.3611    2.7200 H       1  LIG11       0.0230
     82 H          -3.6450    8.7669    1.6927 H       1  LIG11       0.0230
     83 H          -3.4525    7.1314    1.0371 H       1  LIG11       0.0230
     84 H         -12.7885    5.1907    1.8481 H       1  LIG11       0.0230
     85 H         -12.7086    6.7685    2.6512 H       1  LIG11       0.0230
     86 H         -12.4583    5.2858    3.5892 H       1  LIG11       0.0230
@<TRIPOS>BOND
     1     1     2    1
     2     1     3    1
     3     1     4    1
     4     2     5    1
     5     2     6    1
     6     3     8    1
     7     3     7    1
     8     4    10   ar
     9     4     9   ar
    10     5     8    1
    11     5    11    1
    12     6    12    1
    13     7    14   ar
    14     7    13   ar
    15    11    15    1
    16    12    18    1
    17    12    17    1
    18    12    16    1
    19    13    19   ar
    20    14    20   ar
    21    15    22    2
    22    15    21   am
    23    16    23    1
    24    19    25    1
    25    19    24   ar
    26    20    24   ar
    27    20    26    1
    28    21    28    1
    29    21    27    1
    30    23    29    1
    31    24    30    1
    32    25    31    1
    33    26    32    1
    34    27    33    1
    35    28    34    1
    36    30    31    1
    37    33    35    1
    38    34    36    1
    39    35    37    1
    40    36    38    1
    41     1    39    1
    42     2    40    1
    43     3    41    1
    44     5    42    1
    45     6    43    1
    46     6    44    1
    47     8    45    1
    48     8    46    1
    49    11    47    1
    50    11    48    1
    51    13    49    1
    52    14    50    1
    53    16    51    1
    54    16    52    1
    55    17    53    1
    56    17    54    1
    57    17    55    1
    58    18    56    1
    59    18    57    1
    60    18    58    1
    61    23    59    1
    62    23    60    1
    63    27    61    1
    64    27    62    1
    65    28    63    1
    66    28    64    1
    67    29    65    1
    68    29    66    1
    69    29    67    1
    70    31    68    1
    71    31    69    1
    72    32    70    1
    73    32    71    1
    74    32    72    1
    75    33    73    1
    76    33    74    1
    77    34    75    1
    78    34    76    1
    79    35    77    1
    80    35    78    1
    81    36    79    1
    82    36    80    1
    83    37    81    1
    84    37    82    1
    85    37    83    1
    86    38    84    1
    87    38    85    1
    88    38    86    1
@<TRIPOS>MOLECULE
../1EDN/PCA2_17-21.pdb
 47 48 0 0 0
SMALL
GASTEIGER

@<TRIPOS>ATOM
      1  N         -4.4680    0.3970   -1.5420 N.3    17  LEU17      -0.1231
      2  CA        -5.5730   -0.5090   -1.8150 C.3    17  LEU17       0.1693
      3  CB        -5.9860   -1.2020   -0.4580 C.3    17  LEU17       0.0284
      4  CG        -7.1280   -2.2100   -0.5390 C.3    17  LEU17       0.0019
      5  CD1       -6.7120   -3.3620   -1.4700 C.3    17  LEU17       0.0001
      6  CD2       -7.4980   -2.5610    0.9130 C.3    17  LEU17       0.0001
      7  C         -6.7000    0.2280   -2.5610 C.2    17  LEU17       0.2592
      8  O         -7.1860   -0.2780   -3.5510 O.2    17  LEU17      -0.2718
      9  N         -7.2650    1.2690   -1.9650 N.am   18  ASP18      -0.1960
     10  CA        -8.5260    1.8930   -2.2590 C.3    18  ASP18       0.1840
     11  CB        -9.6810    1.0560   -1.6740 C.3    18  ASP18       0.1450
     12  CG       -11.0010    1.6360   -2.1090 C.2    18  ASP18       0.3671
     13  OD1      -11.5960    2.3310   -1.2790 O.co2  18  ASP18      -0.2456
     14  OD2      -11.5460    1.2700   -3.1630 O.co2  18  ASP18      -0.2456
     15  C         -8.5570    3.3770   -1.7380 C.2    18  ASP18       0.2622
     16  O         -8.6960    4.2620   -2.5680 O.2    18  ASP18      -0.2715
     17  N         -8.4180    3.5730   -0.4160 N.am   19  ILE19      -0.1963
     18  CA        -8.3980    4.9040    0.1930 C.3    19  ILE19       0.1727
     19  CB        -8.4260    4.8620    1.7600 C.3    19  ILE19       0.0290
     20  CG2       -7.7310    6.0060    2.5190 C.3    19  ILE19       0.0023
     21  CG1       -9.9240    4.5740    2.2500 C.3    19  ILE19       0.0022
     22  CD1      -10.9740    5.6950    2.0110 C.3    19  ILE19       0.0001
     23  C         -7.1570    5.7010   -0.3260 C.2    19  ILE19       0.2616
     24  O         -7.3050    6.7970   -0.9200 O.2    19  ILE19      -0.2715
     25  N         -5.9900    5.0720   -0.2260 N.am   20  ILE20      -0.1963
     26  CA        -4.7520    5.3490   -0.9430 C.3    20  ILE20       0.1727
     27  CB        -3.5230    4.9310   -0.1080 C.3    20  ILE20       0.0290
     28  CG2       -2.1210    5.5060   -0.7390 C.3    20  ILE20       0.0023
     29  CG1       -3.5940    5.4760    1.3470 C.3    20  ILE20       0.0022
     30  CD1       -2.3570    5.1940    2.2260 C.3    20  ILE20       0.0001
     31  C         -4.7590    4.7050   -2.3650 C.2    20  ILE20       0.2617
     32  O         -4.2060    3.6200   -2.5900 O.2    20  ILE20      -0.2715
     33  N         -5.4060    5.3330   -3.3880 N.am   21  TRP21      -0.1938
     34  CA        -5.3950    4.7680   -4.7850 C.3    21  TRP21       0.2021
     35  CB        -6.6210    3.8650   -5.0310 C.3    21  TRP21       0.0612
     36  CG        -6.7890    3.3770   -6.4480 C.ar   21  TRP21       0.0007
     37  CD1       -7.1340    4.1960   -7.4760 C.ar   21  TRP21       0.0946
     38  NE1       -7.1740    3.4060   -8.6160 N.ar   21  TRP21      -0.2442
     39  CE2       -6.9360    2.0750   -8.3350 C.ar   21  TRP21       0.0810
     40  CZ2       -6.8300    1.0510   -9.2060 C.ar   21  TRP21       0.0191
     41  CH2       -6.3330   -0.2010   -8.7710 C.ar   21  TRP21       0.0015
     42  CZ3       -5.9560   -0.2520   -7.3640 C.ar   21  TRP21       0.0001
     43  CE3       -6.0150    0.8940   -6.5860 C.ar   21  TRP21       0.0012
     44  CD2       -6.6320    2.0560   -6.9830 C.ar   21  TRP21       0.0152
     45  C         -5.1960    5.8550   -5.8260 C.2    21  TRP21       0.3845
     46  O         -4.1840    5.6720   -6.5070 O.co2  21  TRP21      -0.2437
     47  OXT       -5.9640    6.8330   -6.0170 O.co2  21  TRP21      -0.2437
@<TRIPOS>BOND
     1    40    41   ar
     2    40    39   ar
     3    41    42   ar
     4    38    39   ar
     5    38    37   ar
     6    39    44   ar
     7    37    36   ar
     8    42    43   ar
     9    44    43   ar
    10    44    36   ar
    11    46    45   ar
    12    36    35    1
    13    47    45   ar
    14    45    34    1
    15    35    34    1
    16    34    33    1
    17     8     7    2
    18    33    31   am
    19    14    12   ar
    20    32    31    2
    21    16    15    2
    22     7     9   am
    23     7     2    1
    24    31    26    1
    25    10     9    1
    26    10    15    1
    27    10    11    1
    28    12    11    1
    29    12    13   ar
    30     2     1    1
    31     2     3    1
    32    15    17   am
    33     5     4    1
    34    26    25    1
    35    26    27    1
    36    24    23    2
    37    28    27    1
    38     4     3    1
    39     4     6    1
    40    17    18    1
    41    23    25   am
    42    23    18    1
    43    27    29    1
    44    18    19    1
    45    29    30    1
    46    19    21    1
    47    19    20    1
    48    22    21    1
