@<TRIPOS>MOLECULE
01178588C
 55 57 0 0 0
SMALL
GASTEIGER

@<TRIPOS>ATOM
      1 S          -6.4516    3.1369   -0.8179 S.O2    1  LIG11       0.0756
      2 C          -5.1895    4.3763   -0.8868 C.ar    1  LIG11       0.1344
      3 N          -6.0500    2.0491   -2.0506 N.pl3   1  LIG11      -0.1951
      4 O          -7.7018    3.7880   -1.1412 O.2     1  LIG11      -0.1499
      5 O          -6.3099    2.4771    0.4685 O.2     1  LIG11      -0.1499
      6 C          -4.8039    5.0390   -2.0496 C.ar    1  LIG11       0.0975
      7 C          -4.5419    4.6943    0.3219 C.ar    1  LIG11      -0.0315
      8 C          -6.4122    0.7121   -1.6949 C.ar    1  LIG11       0.2006
      9 C          -5.2881    4.8205   -3.4280 C.ar    1  LIG11       0.0023
     10 N          -3.8125    5.9875   -2.0088 N.ar    1  LIG11      -0.2530
     11 C          -3.5380    5.6525    0.3504 C.ar    1  LIG11      -0.0417
     12 C          -7.7388    0.2526   -1.7097 C.ar    1  LIG11       0.2574
     13 N          -5.3975   -0.0160   -1.1816 N.ar    1  LIG11      -0.2325
     14 C          -6.6372    4.8733   -3.8018 C.ar    1  LIG11      -0.0523
     15 C          -4.3484    4.6188   -4.4576 C.ar    1  LIG11      -0.0523
     16 C          -3.2123    6.2706   -0.8350 C.ar    1  LIG11       0.0284
     17 N          -8.0909   -0.9623   -1.2197 N.ar    1  LIG11      -0.2137
     18 O          -8.7049    1.1028   -2.2076 O.3     1  LIG11      -0.4773
     19 C          -5.7584   -1.2317   -0.7088 C.ar    1  LIG11       0.0510
     20 C          -7.0320    4.6586   -5.1300 C.ar    1  LIG11      -0.0579
     21 C          -4.7354    4.4609   -5.7915 C.ar    1  LIG11      -0.0579
     22 C          -7.0715   -1.7039   -0.7213 C.ar    1  LIG11       0.0602
     23 C         -10.0113    0.5435   -2.1991 C.3     1  LIG11       0.0805
     24 C          -6.0855    4.4594   -6.1410 C.ar    1  LIG11      -0.0465
     25 C          -7.4012   -3.0465   -0.1494 C.3     1  LIG11      -0.0208
     26 C          -6.5274    4.3070   -7.5822 C.3     1  LIG11      -0.0174
     27 C          -6.4521    2.8968   -8.2088 C.3     1  LIG11       0.0085
     28 C          -7.3896    1.9090   -7.4667 C.2     1  LIG11       0.0477
     29 C          -7.0416    2.9619   -9.6322 C.3     1  LIG11      -0.0544
     30 C          -5.0116    2.3822   -8.3154 C.3     1  LIG11      -0.0544
     31 O          -8.5291    2.3625   -7.1544 O.co2   1  LIG11      -0.5493
     32 O          -6.9344    0.7427   -7.2879 O.co2   1  LIG11      -0.5493
     33 H          -6.5967    2.3063   -2.8821 H       1  LIG11       0.1754
     34 H          -4.8144    4.1918    1.2481 H       1  LIG11       0.0638
     35 H          -3.0262    5.9040    1.2718 H       1  LIG11       0.0633
     36 H          -7.4157    5.1001   -3.0793 H       1  LIG11       0.0624
     37 H          -3.2854    4.6057   -4.2225 H       1  LIG11       0.0624
     38 H          -2.4358    7.0281   -0.8839 H       1  LIG11       0.0830
     39 H          -4.9481   -1.8262   -0.3003 H       1  LIG11       0.0848
     40 H          -8.0933    4.6557   -5.3796 H       1  LIG11       0.0620
     41 H          -3.9704    4.3382   -6.5525 H       1  LIG11       0.0620
     42 H         -10.6944    1.2824   -2.6296 H       1  LIG11       0.0660
     43 H         -10.3463    0.3408   -1.1756 H       1  LIG11       0.0660
     44 H         -10.0643   -0.3603   -2.8153 H       1  LIG11       0.0660
     45 H          -8.4560   -3.2909   -0.3122 H       1  LIG11       0.0293
     46 H          -7.2121   -3.0531    0.9285 H       1  LIG11       0.0293
     47 H          -6.7955   -3.8238   -0.6254 H       1  LIG11       0.0293
     48 H          -5.9236    5.0023   -8.1831 H       1  LIG11       0.0322
     49 H          -7.5510    4.6984   -7.6703 H       1  LIG11       0.0322
     50 H          -6.4558    3.6368  -10.2673 H       1  LIG11       0.0239
     51 H          -8.0755    3.3261   -9.6325 H       1  LIG11       0.0239
     52 H          -7.0446    1.9752  -10.1108 H       1  LIG11       0.0239
     53 H          -4.3556    3.1327   -8.7707 H       1  LIG11       0.0239
     54 H          -4.9522    1.4814   -8.9382 H       1  LIG11       0.0239
     55 H          -4.6006    2.1134   -7.3370 H       1  LIG11       0.0239
@<TRIPOS>BOND
     1     1     5    2
     2     1     4    2
     3     1     3    1
     4     1     2    1
     5     2     6   ar
     6     2     7   ar
     7     3     8    1
     8     6    10   ar
     9     6     9    1
    10     7    11   ar
    11     8    12   ar
    12     8    13   ar
    13     9    14   ar
    14     9    15   ar
    15    10    16   ar
    16    11    16   ar
    17    12    17   ar
    18    12    18    1
    19    13    19   ar
    20    14    20   ar
    21    15    21   ar
    22    17    22   ar
    23    18    23    1
    24    19    22   ar
    25    20    24   ar
    26    21    24   ar
    27    22    25    1
    28    24    26    1
    29    26    27    1
    30    27    30    1
    31    27    29    1
    32    27    28    1
    33    28    32   ar
    34    28    31   ar
    35     3    33    1
    36     7    34    1
    37    11    35    1
    38    14    36    1
    39    15    37    1
    40    16    38    1
    41    19    39    1
    42    20    40    1
    43    21    41    1
    44    23    42    1
    45    23    43    1
    46    23    44    1
    47    25    45    1
    48    25    46    1
    49    25    47    1
    50    26    48    1
    51    26    49    1
    52    29    50    1
    53    29    51    1
    54    29    52    1
    55    30    53    1
    56    30    54    1
    57    30    55    1
@<TRIPOS>MOLECULE
../1EDN/PCA2_17-21.pdb
 47 48 0 0 0
SMALL
GASTEIGER

@<TRIPOS>ATOM
      1  N         -4.4680    0.3970   -1.5420 N.3    17  LEU17      -0.1231
      2  CA        -5.5730   -0.5090   -1.8150 C.3    17  LEU17       0.1693
      3  CB        -5.9860   -1.2020   -0.4580 C.3    17  LEU17       0.0284
      4  CG        -7.1280   -2.2100   -0.5390 C.3    17  LEU17       0.0019
      5  CD1       -6.7120   -3.3620   -1.4700 C.3    17  LEU17       0.0001
      6  CD2       -7.4980   -2.5610    0.9130 C.3    17  LEU17       0.0001
      7  C         -6.7000    0.2280   -2.5610 C.2    17  LEU17       0.2592
      8  O         -7.1860   -0.2780   -3.5510 O.2    17  LEU17      -0.2718
      9  N         -7.2650    1.2690   -1.9650 N.am   18  ASP18      -0.1960
     10  CA        -8.5260    1.8930   -2.2590 C.3    18  ASP18       0.1840
     11  CB        -9.6810    1.0560   -1.6740 C.3    18  ASP18       0.1450
     12  CG       -11.0010    1.6360   -2.1090 C.2    18  ASP18       0.3671
     13  OD1      -11.5960    2.3310   -1.2790 O.co2  18  ASP18      -0.2456
     14  OD2      -11.5460    1.2700   -3.1630 O.co2  18  ASP18      -0.2456
     15  C         -8.5570    3.3770   -1.7380 C.2    18  ASP18       0.2622
     16  O         -8.6960    4.2620   -2.5680 O.2    18  ASP18      -0.2715
     17  N         -8.4180    3.5730   -0.4160 N.am   19  ILE19      -0.1963
     18  CA        -8.3980    4.9040    0.1930 C.3    19  ILE19       0.1727
     19  CB        -8.4260    4.8620    1.7600 C.3    19  ILE19       0.0290
     20  CG2       -7.7310    6.0060    2.5190 C.3    19  ILE19       0.0023
     21  CG1       -9.9240    4.5740    2.2500 C.3    19  ILE19       0.0022
     22  CD1      -10.9740    5.6950    2.0110 C.3    19  ILE19       0.0001
     23  C         -7.1570    5.7010   -0.3260 C.2    19  ILE19       0.2616
     24  O         -7.3050    6.7970   -0.9200 O.2    19  ILE19      -0.2715
     25  N         -5.9900    5.0720   -0.2260 N.am   20  ILE20      -0.1963
     26  CA        -4.7520    5.3490   -0.9430 C.3    20  ILE20       0.1727
     27  CB        -3.5230    4.9310   -0.1080 C.3    20  ILE20       0.0290
     28  CG2       -2.1210    5.5060   -0.7390 C.3    20  ILE20       0.0023
     29  CG1       -3.5940    5.4760    1.3470 C.3    20  ILE20       0.0022
     30  CD1       -2.3570    5.1940    2.2260 C.3    20  ILE20       0.0001
     31  C         -4.7590    4.7050   -2.3650 C.2    20  ILE20       0.2617
     32  O         -4.2060    3.6200   -2.5900 O.2    20  ILE20      -0.2715
     33  N         -5.4060    5.3330   -3.3880 N.am   21  TRP21      -0.1938
     34  CA        -5.3950    4.7680   -4.7850 C.3    21  TRP21       0.2021
     35  CB        -6.6210    3.8650   -5.0310 C.3    21  TRP21       0.0612
     36  CG        -6.7890    3.3770   -6.4480 C.ar   21  TRP21       0.0007
     37  CD1       -7.1340    4.1960   -7.4760 C.ar   21  TRP21       0.0946
     38  NE1       -7.1740    3.4060   -8.6160 N.ar   21  TRP21      -0.2442
     39  CE2       -6.9360    2.0750   -8.3350 C.ar   21  TRP21       0.0810
     40  CZ2       -6.8300    1.0510   -9.2060 C.ar   21  TRP21       0.0191
     41  CH2       -6.3330   -0.2010   -8.7710 C.ar   21  TRP21       0.0015
     42  CZ3       -5.9560   -0.2520   -7.3640 C.ar   21  TRP21       0.0001
     43  CE3       -6.0150    0.8940   -6.5860 C.ar   21  TRP21       0.0012
     44  CD2       -6.6320    2.0560   -6.9830 C.ar   21  TRP21       0.0152
     45  C         -5.1960    5.8550   -5.8260 C.2    21  TRP21       0.3845
     46  O         -4.1840    5.6720   -6.5070 O.co2  21  TRP21      -0.2437
     47  OXT       -5.9640    6.8330   -6.0170 O.co2  21  TRP21      -0.2437
@<TRIPOS>BOND
     1    40    41   ar
     2    40    39   ar
     3    41    42   ar
     4    38    39   ar
     5    38    37   ar
     6    39    44   ar
     7    37    36   ar
     8    42    43   ar
     9    44    43   ar
    10    44    36   ar
    11    46    45   ar
    12    36    35    1
    13    47    45   ar
    14    45    34    1
    15    35    34    1
    16    34    33    1
    17     8     7    2
    18    33    31   am
    19    14    12   ar
    20    32    31    2
    21    16    15    2
    22     7     9   am
    23     7     2    1
    24    31    26    1
    25    10     9    1
    26    10    15    1
    27    10    11    1
    28    12    11    1
    29    12    13   ar
    30     2     1    1
    31     2     3    1
    32    15    17   am
    33     5     4    1
    34    26    25    1
    35    26    27    1
    36    24    23    2
    37    28    27    1
    38     4     3    1
    39     4     6    1
    40    17    18    1
    41    23    25   am
    42    23    18    1
    43    27    29    1
    44    18    19    1
    45    29    30    1
    46    19    21    1
    47    19    20    1
    48    22    21    1
