@<TRIPOS>MOLECULE
104865
 68 71 0 0 0
SMALL
GASTEIGER

@<TRIPOS>ATOM
      1 S          -8.7115    1.8725   -2.5538 S.O2    1  LIG11       0.0736
      2 O          -7.6639    1.4929   -1.6264 O.2     1  LIG11      -0.1499
      3 O          -9.9786    1.1731   -2.5865 O.2     1  LIG11      -0.1499
      4 O          -6.4808    4.4217   -3.0100 O.3     1  LIG11      -0.4435
      5 O          -5.1621    5.9423   -0.9498 O.3     1  LIG11      -0.4715
      6 O          -5.2584    5.7376   -4.9792 O.3     1  LIG11      -0.4914
      7 O          -3.0728    7.4779    1.6334 O.3     1  LIG11      -0.3917
      8 N          -9.0794    3.5092   -2.3727 N.pl3   1  LIG11      -0.1963
      9 N          -8.8734    4.3745   -0.2830 N.ar    1  LIG11      -0.2044
     10 N          -6.9248    5.4983    0.4959 N.ar    1  LIG11      -0.1866
     11 N          -7.9233    5.2455    3.1037 N.ar    1  LIG11      -0.2331
     12 N         -10.0956    4.8876    2.1764 N.ar    1  LIG11      -0.2331
     13 C          -6.5334    1.4072   -8.2704 C.3     1  LIG11      -0.0127
     14 C          -7.0458    1.5474   -6.8252 C.ar    1  LIG11      -0.0419
     15 C          -6.4997    2.7920   -8.9504 C.3     1  LIG11      -0.0560
     16 C          -7.4742    0.4754   -9.0649 C.3     1  LIG11      -0.0560
     17 C          -5.1099    0.8132   -8.3728 C.3     1  LIG11      -0.0560
     18 C          -8.3292    2.0786   -6.5761 C.ar    1  LIG11      -0.0562
     19 C          -6.2847    1.1450   -5.7138 C.ar    1  LIG11      -0.0562
     20 C          -8.0542    1.7856   -4.1991 C.ar    1  LIG11       0.1086
     21 C          -8.8347    2.1967   -5.2773 C.ar    1  LIG11      -0.0348
     22 C          -6.7838    1.2549   -4.4124 C.ar    1  LIG11      -0.0348
     23 C          -8.2539    4.2151   -1.4595 C.ar    1  LIG11       0.1883
     24 C          -6.9715    4.6313   -1.7513 C.ar    1  LIG11       0.2307
     25 C          -6.3624    5.3114   -0.7145 C.ar    1  LIG11       0.2642
     26 C          -8.1608    4.9861    0.6863 C.ar    1  LIG11       0.2027
     27 C          -5.1284    4.2133   -3.1741 C.ar    1  LIG11       0.1702
     28 C          -8.7568    5.0592    2.0516 C.ar    1  LIG11       0.1978
     29 C          -4.2796    5.9736    0.1733 C.3     1  LIG11       0.1143
     30 C          -4.4876    4.8996   -4.2146 C.ar    1  LIG11       0.1621
     31 C          -4.4157    3.2996   -2.3880 C.ar    1  LIG11      -0.0157
     32 C          -3.1093    4.7488   -4.3893 C.ar    1  LIG11      -0.0163
     33 C          -4.0718    7.4136    0.6214 C.3     1  LIG11       0.0783
     34 C          -3.0432    3.1423   -2.5801 C.ar    1  LIG11      -0.0581
     35 C          -2.3895    3.8766   -3.5688 C.ar    1  LIG11      -0.0581
     36 C          -8.4796    5.2367    4.3283 C.ar    1  LIG11       0.0315
     37 C         -10.5947    4.8973    3.4259 C.ar    1  LIG11       0.0315
     38 C          -9.8241    5.0645    4.5507 C.ar    1  LIG11      -0.0254
     39 C          -4.8874    5.7944   -6.3524 C.3     1  LIG11       0.0790
     40 H          -2.9920    8.4132    1.8872 H       1  LIG11       0.2095
     41 H         -10.0572    3.5845   -2.0924 H       1  LIG11       0.1754
     42 H          -7.4943    3.2455   -9.0192 H       1  LIG11       0.0238
     43 H          -6.1081    2.7211   -9.9720 H       1  LIG11       0.0238
     44 H          -5.8587    3.4868   -8.3966 H       1  LIG11       0.0238
     45 H          -8.4899    0.8790   -9.1405 H       1  LIG11       0.0238
     46 H          -7.5462   -0.5106   -8.5906 H       1  LIG11       0.0238
     47 H          -7.1113    0.3271  -10.0888 H       1  LIG11       0.0238
     48 H          -4.3737    1.4380   -7.8537 H       1  LIG11       0.0238
     49 H          -4.7876    0.7363   -9.4182 H       1  LIG11       0.0238
     50 H          -5.0623   -0.1962   -7.9475 H       1  LIG11       0.0238
     51 H          -8.9626    2.3997   -7.4009 H       1  LIG11       0.0621
     52 H          -5.2882    0.7268   -5.8279 H       1  LIG11       0.0621
     53 H          -9.8344    2.5936   -5.1204 H       1  LIG11       0.0637
     54 H          -6.1730    0.9175   -3.5782 H       1  LIG11       0.0637
     55 H          -3.3188    5.5625   -0.1596 H       1  LIG11       0.0720
     56 H          -4.5870    5.3360    1.0124 H       1  LIG11       0.0720
     57 H          -4.9159    2.7198   -1.6165 H       1  LIG11       0.0655
     58 H          -2.5736    5.3163   -5.1434 H       1  LIG11       0.0655
     59 H          -3.7539    8.0323   -0.2250 H       1  LIG11       0.0591
     60 H          -5.0040    7.8356    1.0102 H       1  LIG11       0.0591
     61 H          -2.4821    2.4569   -1.9501 H       1  LIG11       0.0619
     62 H          -1.3155    3.7708   -3.7018 H       1  LIG11       0.0619
     63 H          -7.7855    5.3714    5.1530 H       1  LIG11       0.0831
     64 H         -11.6695    4.7563    3.4965 H       1  LIG11       0.0831
     65 H         -10.2474    5.0588    5.5451 H       1  LIG11       0.0648
     66 H          -5.7496    6.1609   -6.9177 H       1  LIG11       0.0660
     67 H          -4.6246    4.8072   -6.7484 H       1  LIG11       0.0660
     68 H          -4.0648    6.5015   -6.4968 H       1  LIG11       0.0660
@<TRIPOS>BOND
     1     1     2    2
     2     1     3    2
     3     1     8    1
     4     1    20    1
     5     4    24    1
     6     4    27    1
     7     5    25    1
     8     5    29    1
     9     6    30    1
    10     6    39    1
    11     7    33    1
    12     8    23    1
    13     9    23   ar
    14     9    26   ar
    15    10    25   ar
    16    10    26   ar
    17    11    28   ar
    18    11    36   ar
    19    12    28   ar
    20    12    37   ar
    21    13    14    1
    22    13    15    1
    23    13    16    1
    24    13    17    1
    25    14    18   ar
    26    14    19   ar
    27    18    21   ar
    28    19    22   ar
    29    20    21   ar
    30    20    22   ar
    31    23    24   ar
    32    24    25   ar
    33    26    28    1
    34    27    30   ar
    35    27    31   ar
    36    29    33    1
    37    30    32   ar
    38    31    34   ar
    39    32    35   ar
    40    34    35   ar
    41    36    38   ar
    42    37    38   ar
    43     7    40    1
    44     8    41    1
    45    15    42    1
    46    15    43    1
    47    15    44    1
    48    16    45    1
    49    16    46    1
    50    16    47    1
    51    17    48    1
    52    17    49    1
    53    17    50    1
    54    18    51    1
    55    19    52    1
    56    21    53    1
    57    22    54    1
    58    29    55    1
    59    29    56    1
    60    31    57    1
    61    32    58    1
    62    33    59    1
    63    33    60    1
    64    34    61    1
    65    35    62    1
    66    36    63    1
    67    37    64    1
    68    38    65    1
    69    39    66    1
    70    39    67    1
    71    39    68    1
@<TRIPOS>MOLECULE
../1EDN/PCA2_17-21.pdb
 47 48 0 0 0
SMALL
GASTEIGER

@<TRIPOS>ATOM
      1  N         -4.4680    0.3970   -1.5420 N.3    17  LEU17      -0.1231
      2  CA        -5.5730   -0.5090   -1.8150 C.3    17  LEU17       0.1693
      3  CB        -5.9860   -1.2020   -0.4580 C.3    17  LEU17       0.0284
      4  CG        -7.1280   -2.2100   -0.5390 C.3    17  LEU17       0.0019
      5  CD1       -6.7120   -3.3620   -1.4700 C.3    17  LEU17       0.0001
      6  CD2       -7.4980   -2.5610    0.9130 C.3    17  LEU17       0.0001
      7  C         -6.7000    0.2280   -2.5610 C.2    17  LEU17       0.2592
      8  O         -7.1860   -0.2780   -3.5510 O.2    17  LEU17      -0.2718
      9  N         -7.2650    1.2690   -1.9650 N.am   18  ASP18      -0.1960
     10  CA        -8.5260    1.8930   -2.2590 C.3    18  ASP18       0.1840
     11  CB        -9.6810    1.0560   -1.6740 C.3    18  ASP18       0.1450
     12  CG       -11.0010    1.6360   -2.1090 C.2    18  ASP18       0.3671
     13  OD1      -11.5960    2.3310   -1.2790 O.co2  18  ASP18      -0.2456
     14  OD2      -11.5460    1.2700   -3.1630 O.co2  18  ASP18      -0.2456
     15  C         -8.5570    3.3770   -1.7380 C.2    18  ASP18       0.2622
     16  O         -8.6960    4.2620   -2.5680 O.2    18  ASP18      -0.2715
     17  N         -8.4180    3.5730   -0.4160 N.am   19  ILE19      -0.1963
     18  CA        -8.3980    4.9040    0.1930 C.3    19  ILE19       0.1727
     19  CB        -8.4260    4.8620    1.7600 C.3    19  ILE19       0.0290
     20  CG2       -7.7310    6.0060    2.5190 C.3    19  ILE19       0.0023
     21  CG1       -9.9240    4.5740    2.2500 C.3    19  ILE19       0.0022
     22  CD1      -10.9740    5.6950    2.0110 C.3    19  ILE19       0.0001
     23  C         -7.1570    5.7010   -0.3260 C.2    19  ILE19       0.2616
     24  O         -7.3050    6.7970   -0.9200 O.2    19  ILE19      -0.2715
     25  N         -5.9900    5.0720   -0.2260 N.am   20  ILE20      -0.1963
     26  CA        -4.7520    5.3490   -0.9430 C.3    20  ILE20       0.1727
     27  CB        -3.5230    4.9310   -0.1080 C.3    20  ILE20       0.0290
     28  CG2       -2.1210    5.5060   -0.7390 C.3    20  ILE20       0.0023
     29  CG1       -3.5940    5.4760    1.3470 C.3    20  ILE20       0.0022
     30  CD1       -2.3570    5.1940    2.2260 C.3    20  ILE20       0.0001
     31  C         -4.7590    4.7050   -2.3650 C.2    20  ILE20       0.2617
     32  O         -4.2060    3.6200   -2.5900 O.2    20  ILE20      -0.2715
     33  N         -5.4060    5.3330   -3.3880 N.am   21  TRP21      -0.1938
     34  CA        -5.3950    4.7680   -4.7850 C.3    21  TRP21       0.2021
     35  CB        -6.6210    3.8650   -5.0310 C.3    21  TRP21       0.0612
     36  CG        -6.7890    3.3770   -6.4480 C.ar   21  TRP21       0.0007
     37  CD1       -7.1340    4.1960   -7.4760 C.ar   21  TRP21       0.0946
     38  NE1       -7.1740    3.4060   -8.6160 N.ar   21  TRP21      -0.2442
     39  CE2       -6.9360    2.0750   -8.3350 C.ar   21  TRP21       0.0810
     40  CZ2       -6.8300    1.0510   -9.2060 C.ar   21  TRP21       0.0191
     41  CH2       -6.3330   -0.2010   -8.7710 C.ar   21  TRP21       0.0015
     42  CZ3       -5.9560   -0.2520   -7.3640 C.ar   21  TRP21       0.0001
     43  CE3       -6.0150    0.8940   -6.5860 C.ar   21  TRP21       0.0012
     44  CD2       -6.6320    2.0560   -6.9830 C.ar   21  TRP21       0.0152
     45  C         -5.1960    5.8550   -5.8260 C.2    21  TRP21       0.3845
     46  O         -4.1840    5.6720   -6.5070 O.co2  21  TRP21      -0.2437
     47  OXT       -5.9640    6.8330   -6.0170 O.co2  21  TRP21      -0.2437
@<TRIPOS>BOND
     1    40    41   ar
     2    40    39   ar
     3    41    42   ar
     4    38    39   ar
     5    38    37   ar
     6    39    44   ar
     7    37    36   ar
     8    42    43   ar
     9    44    43   ar
    10    44    36   ar
    11    46    45   ar
    12    36    35    1
    13    47    45   ar
    14    45    34    1
    15    35    34    1
    16    34    33    1
    17     8     7    2
    18    33    31   am
    19    14    12   ar
    20    32    31    2
    21    16    15    2
    22     7     9   am
    23     7     2    1
    24    31    26    1
    25    10     9    1
    26    10    15    1
    27    10    11    1
    28    12    11    1
    29    12    13   ar
    30     2     1    1
    31     2     3    1
    32    15    17   am
    33     5     4    1
    34    26    25    1
    35    26    27    1
    36    24    23    2
    37    28    27    1
    38     4     3    1
    39     4     6    1
    40    17    18    1
    41    23    25   am
    42    23    18    1
    43    27    29    1
    44    18    19    1
    45    29    30    1
    46    19    21    1
    47    19    20    1
    48    22    21    1
