@<TRIPOS>MOLECULE
6433095
 64 68 0 0 0
SMALL
GASTEIGER

@<TRIPOS>ATOM
      1 S          -9.7204    1.4282   -1.8838 S.O2    1  LIG11       0.0908
      2 O          -8.3239    4.4043    0.1302 O.3     1  LIG11      -0.4435
      3 O          -5.6640    5.2592   -0.4564 O.3     1  LIG11      -0.4715
      4 O         -10.1209    1.0506   -3.2237 O.2     1  LIG11      -0.1484
      5 O         -10.5205    1.0104   -0.7450 O.2     1  LIG11      -0.1484
      6 O          -8.3444    4.0955    2.7500 O.3     1  LIG11      -0.4914
      7 O          -2.2386    4.0242   -1.0034 O.3     1  LIG11      -0.3917
      8 N          -9.6798    3.1178   -1.8191 N.pl3   1  LIG11      -0.1950
      9 N          -8.0169    3.6455   -3.4015 N.ar    1  LIG11      -0.2073
     10 N          -6.0352    4.7750   -2.7147 N.ar    1  LIG11      -0.1899
     11 N          -7.3896    1.3553   -0.5641 N.ar    1  LIG11      -0.2351
     12 N          -5.5246    4.8095   -7.6931 N.ar    1  LIG11      -0.2552
     13 N          -6.2580    2.9516   -9.7388 N.ar    1  LIG11      -0.5621
     14 N          -6.9830    1.4716   -8.1906 N.ar    1  LIG11      -0.1535
     15 N          -6.6225    1.7693  -10.2444 N.ar    1  LIG11      -0.3597
     16 N          -7.0550    0.8599   -9.3647 N.ar    1  LIG11      -0.0878
     17 C          -8.4410    3.7428   -2.1297 C.ar    1  LIG11       0.1882
     18 C          -7.7570    4.3798   -1.1111 C.ar    1  LIG11       0.2307
     19 C          -6.4958    4.7984   -1.4528 C.ar    1  LIG11       0.2641
     20 C          -6.8365    4.2348   -3.6529 C.ar    1  LIG11       0.1659
     21 C          -8.0500    0.8211   -1.6269 C.ar    1  LIG11       0.1969
     22 C          -6.3972    4.4015   -5.0468 C.ar    1  LIG11       0.0227
     23 C          -7.5056   -0.0900   -2.5179 C.ar    1  LIG11      -0.0160
     24 C          -8.2627    5.5543    0.8860 C.ar    1  LIG11       0.1702
     25 C          -6.7040    3.4782   -6.0565 C.ar    1  LIG11      -0.0252
     26 C          -5.4738    0.0178   -1.2195 C.ar    1  LIG11      -0.0322
     27 C          -6.1911   -0.4925   -2.3057 C.ar    1  LIG11      -0.0541
     28 C          -5.6429    5.5302   -5.4103 C.ar    1  LIG11      -0.0328
     29 C          -4.2783    5.3122   -0.7962 C.3     1  LIG11       0.1143
     30 C          -6.2454    3.7070   -7.3556 C.ar    1  LIG11       0.0708
     31 C          -6.1182    0.9314   -0.3868 C.ar    1  LIG11       0.0327
     32 C          -8.2878    5.3822    2.2775 C.ar    1  LIG11       0.1621
     33 C          -8.2535    6.8446    0.3434 C.ar    1  LIG11      -0.0157
     34 C          -5.2432    5.6933   -6.7219 C.ar    1  LIG11       0.0289
     35 C          -4.0492   -0.3728   -0.9775 C.3     1  LIG11      -0.0383
     36 C          -3.6422    3.9233   -0.7991 C.3     1  LIG11       0.0783
     37 C          -8.1975    6.4947    3.1167 C.ar    1  LIG11      -0.0163
     38 C          -8.1761    7.9532    1.1875 C.ar    1  LIG11      -0.0581
     39 C          -8.1350    7.7777    2.5699 C.ar    1  LIG11      -0.0581
     40 C          -6.4958    2.7405   -8.4278 C.ar    1  LIG11       0.0207
     41 C          -9.2216    3.9218    3.8594 C.3     1  LIG11       0.0790
     42 H          -1.8899    3.1173   -1.0432 H       1  LIG11       0.2095
     43 H         -10.0388    3.3931   -0.9034 H       1  LIG11       0.1754
     44 H          -6.5721    1.5705  -11.2396 H       1  LIG11       0.1651
     45 H          -8.0796   -0.4748   -3.3545 H       1  LIG11       0.0653
     46 H          -7.2861    2.5889   -5.8266 H       1  LIG11       0.0646
     47 H          -5.7345   -1.2053   -2.9888 H       1  LIG11       0.0622
     48 H          -5.3767    6.2871   -4.6771 H       1  LIG11       0.0640
     49 H          -3.7892    5.9170   -0.0233 H       1  LIG11       0.0720
     50 H          -4.0969    5.8530   -1.7337 H       1  LIG11       0.0720
     51 H          -5.6092    1.3649    0.4717 H       1  LIG11       0.0833
     52 H          -8.2942    7.0089   -0.7291 H       1  LIG11       0.0655
     53 H          -4.6702    6.5625   -7.0321 H       1  LIG11       0.0830
     54 H          -3.7649   -1.2383   -1.5857 H       1  LIG11       0.0278
     55 H          -3.8978   -0.6451    0.0719 H       1  LIG11       0.0278
     56 H          -3.3825    0.4570   -1.2336 H       1  LIG11       0.0278
     57 H          -3.8264    3.4198    0.1560 H       1  LIG11       0.0591
     58 H          -4.0641    3.2940   -1.5889 H       1  LIG11       0.0591
     59 H          -8.1540    6.3796    4.1948 H       1  LIG11       0.0655
     60 H          -8.1387    8.9547    0.7657 H       1  LIG11       0.0619
     61 H          -8.0546    8.6422    3.2244 H       1  LIG11       0.0619
     62 H          -9.4816    2.8604    3.9171 H       1  LIG11       0.0660
     63 H         -10.1532    4.4870    3.7398 H       1  LIG11       0.0660
     64 H          -8.7178    4.1959    4.7911 H       1  LIG11       0.0660
@<TRIPOS>BOND
     1     1     4    2
     2     1     5    2
     3     1     8    1
     4     1    21    1
     5     2    18    1
     6     2    24    1
     7     3    19    1
     8     3    29    1
     9     6    32    1
    10     6    41    1
    11     7    36    1
    12     8    17    1
    13     9    17   ar
    14     9    20   ar
    15    10    19   ar
    16    10    20   ar
    17    11    21   ar
    18    11    31   ar
    19    12    30   ar
    20    12    34   ar
    21    13    15   ar
    22    13    40   ar
    23    14    16   ar
    24    14    40   ar
    25    15    16   ar
    26    17    18   ar
    27    18    19   ar
    28    20    22    1
    29    21    23   ar
    30    22    25   ar
    31    22    28   ar
    32    23    27   ar
    33    24    32   ar
    34    24    33   ar
    35    25    30   ar
    36    26    27   ar
    37    26    31   ar
    38    26    35    1
    39    28    34   ar
    40    29    36    1
    41    30    40    1
    42    32    37   ar
    43    33    38   ar
    44    37    39   ar
    45    38    39   ar
    46     7    42    1
    47     8    43    1
    48    15    44    1
    49    23    45    1
    50    25    46    1
    51    27    47    1
    52    28    48    1
    53    29    49    1
    54    29    50    1
    55    31    51    1
    56    33    52    1
    57    34    53    1
    58    35    54    1
    59    35    55    1
    60    35    56    1
    61    36    57    1
    62    36    58    1
    63    37    59    1
    64    38    60    1
    65    39    61    1
    66    41    62    1
    67    41    63    1
    68    41    64    1
@<TRIPOS>MOLECULE
../1EDN/PCA2_17-21.pdb
 47 48 0 0 0
SMALL
GASTEIGER

@<TRIPOS>ATOM
      1  N         -4.4680    0.3970   -1.5420 N.3    17  LEU17      -0.1231
      2  CA        -5.5730   -0.5090   -1.8150 C.3    17  LEU17       0.1693
      3  CB        -5.9860   -1.2020   -0.4580 C.3    17  LEU17       0.0284
      4  CG        -7.1280   -2.2100   -0.5390 C.3    17  LEU17       0.0019
      5  CD1       -6.7120   -3.3620   -1.4700 C.3    17  LEU17       0.0001
      6  CD2       -7.4980   -2.5610    0.9130 C.3    17  LEU17       0.0001
      7  C         -6.7000    0.2280   -2.5610 C.2    17  LEU17       0.2592
      8  O         -7.1860   -0.2780   -3.5510 O.2    17  LEU17      -0.2718
      9  N         -7.2650    1.2690   -1.9650 N.am   18  ASP18      -0.1960
     10  CA        -8.5260    1.8930   -2.2590 C.3    18  ASP18       0.1840
     11  CB        -9.6810    1.0560   -1.6740 C.3    18  ASP18       0.1450
     12  CG       -11.0010    1.6360   -2.1090 C.2    18  ASP18       0.3671
     13  OD1      -11.5960    2.3310   -1.2790 O.co2  18  ASP18      -0.2456
     14  OD2      -11.5460    1.2700   -3.1630 O.co2  18  ASP18      -0.2456
     15  C         -8.5570    3.3770   -1.7380 C.2    18  ASP18       0.2622
     16  O         -8.6960    4.2620   -2.5680 O.2    18  ASP18      -0.2715
     17  N         -8.4180    3.5730   -0.4160 N.am   19  ILE19      -0.1963
     18  CA        -8.3980    4.9040    0.1930 C.3    19  ILE19       0.1727
     19  CB        -8.4260    4.8620    1.7600 C.3    19  ILE19       0.0290
     20  CG2       -7.7310    6.0060    2.5190 C.3    19  ILE19       0.0023
     21  CG1       -9.9240    4.5740    2.2500 C.3    19  ILE19       0.0022
     22  CD1      -10.9740    5.6950    2.0110 C.3    19  ILE19       0.0001
     23  C         -7.1570    5.7010   -0.3260 C.2    19  ILE19       0.2616
     24  O         -7.3050    6.7970   -0.9200 O.2    19  ILE19      -0.2715
     25  N         -5.9900    5.0720   -0.2260 N.am   20  ILE20      -0.1963
     26  CA        -4.7520    5.3490   -0.9430 C.3    20  ILE20       0.1727
     27  CB        -3.5230    4.9310   -0.1080 C.3    20  ILE20       0.0290
     28  CG2       -2.1210    5.5060   -0.7390 C.3    20  ILE20       0.0023
     29  CG1       -3.5940    5.4760    1.3470 C.3    20  ILE20       0.0022
     30  CD1       -2.3570    5.1940    2.2260 C.3    20  ILE20       0.0001
     31  C         -4.7590    4.7050   -2.3650 C.2    20  ILE20       0.2617
     32  O         -4.2060    3.6200   -2.5900 O.2    20  ILE20      -0.2715
     33  N         -5.4060    5.3330   -3.3880 N.am   21  TRP21      -0.1938
     34  CA        -5.3950    4.7680   -4.7850 C.3    21  TRP21       0.2021
     35  CB        -6.6210    3.8650   -5.0310 C.3    21  TRP21       0.0612
     36  CG        -6.7890    3.3770   -6.4480 C.ar   21  TRP21       0.0007
     37  CD1       -7.1340    4.1960   -7.4760 C.ar   21  TRP21       0.0946
     38  NE1       -7.1740    3.4060   -8.6160 N.ar   21  TRP21      -0.2442
     39  CE2       -6.9360    2.0750   -8.3350 C.ar   21  TRP21       0.0810
     40  CZ2       -6.8300    1.0510   -9.2060 C.ar   21  TRP21       0.0191
     41  CH2       -6.3330   -0.2010   -8.7710 C.ar   21  TRP21       0.0015
     42  CZ3       -5.9560   -0.2520   -7.3640 C.ar   21  TRP21       0.0001
     43  CE3       -6.0150    0.8940   -6.5860 C.ar   21  TRP21       0.0012
     44  CD2       -6.6320    2.0560   -6.9830 C.ar   21  TRP21       0.0152
     45  C         -5.1960    5.8550   -5.8260 C.2    21  TRP21       0.3845
     46  O         -4.1840    5.6720   -6.5070 O.co2  21  TRP21      -0.2437
     47  OXT       -5.9640    6.8330   -6.0170 O.co2  21  TRP21      -0.2437
@<TRIPOS>BOND
     1    40    41   ar
     2    40    39   ar
     3    41    42   ar
     4    38    39   ar
     5    38    37   ar
     6    39    44   ar
     7    37    36   ar
     8    42    43   ar
     9    44    43   ar
    10    44    36   ar
    11    46    45   ar
    12    36    35    1
    13    47    45   ar
    14    45    34    1
    15    35    34    1
    16    34    33    1
    17     8     7    2
    18    33    31   am
    19    14    12   ar
    20    32    31    2
    21    16    15    2
    22     7     9   am
    23     7     2    1
    24    31    26    1
    25    10     9    1
    26    10    15    1
    27    10    11    1
    28    12    11    1
    29    12    13   ar
    30     2     1    1
    31     2     3    1
    32    15    17   am
    33     5     4    1
    34    26    25    1
    35    26    27    1
    36    24    23    2
    37    28    27    1
    38     4     3    1
    39     4     6    1
    40    17    18    1
    41    23    25   am
    42    23    18    1
    43    27    29    1
    44    18    19    1
    45    29    30    1
    46    19    21    1
    47    19    20    1
    48    22    21    1
