@<TRIPOS>MOLECULE
156690
 70 73 0 0 0
SMALL
GASTEIGER

@<TRIPOS>ATOM
      1 S          -7.3453    2.6157   -6.7739 S.O2    1  LIG11       0.0741
      2 O          -9.7555    4.0641   -0.3147 O.2     1  LIG11      -0.2756
      3 O          -8.1094    3.1637   -7.8754 O.2     1  LIG11      -0.1499
      4 O          -7.9656    1.7622   -5.7887 O.2     1  LIG11      -0.1499
      5 O          -7.6807   -0.5248   -0.0986 O.2     1  LIG11      -0.4436
      6 O          -5.9810   -1.3922   -8.6957 O.2     1  LIG11      -0.3578
      7 N          -7.4983    4.3818   -0.5419 N.am    1  LIG11      -0.3002
      8 N          -5.9715    1.8394   -7.4041 N.pl3   1  LIG11      -0.1965
      9 N          -6.4695   -1.9384   -1.3756 N.ar    1  LIG11      -0.2175
     10 N          -5.8301   -0.4837   -7.6701 N.ar    1  LIG11      -0.0614
     11 C          -9.0819    5.3677    2.5030 C.3     1  LIG11      -0.0295
     12 C          -8.5455    4.1331    1.7372 C.3     1  LIG11       0.0290
     13 C          -8.9509    5.0873    4.0143 C.3     1  LIG11      -0.0596
     14 C         -10.5678    5.6222    2.1932 C.3     1  LIG11      -0.0596
     15 C          -8.2752    6.6312    2.1701 C.3     1  LIG11      -0.0596
     16 C          -8.6475    4.2061    0.2160 C.2     1  LIG11       0.2161
     17 C          -7.5952    4.1920   -2.0062 C.3     1  LIG11       0.0400
     18 C          -6.9596    2.8907   -2.4876 C.ar    1  LIG11      -0.0216
     19 C          -6.1767    2.7836   -3.6676 C.ar    1  LIG11      -0.0113
     20 C          -5.9939    3.9058   -4.6221 C.ar    1  LIG11       0.0090
     21 C          -6.1589    4.5243    0.0157 C.3     1  LIG11       0.0035
     22 C          -7.2082    1.7263   -1.7202 C.ar    1  LIG11      -0.0442
     23 C          -6.5285    3.9818   -5.9342 C.ar    1  LIG11       0.1162
     24 C          -5.5318    1.5541   -3.9065 C.ar    1  LIG11      -0.0529
     25 C          -6.6307    0.4890   -2.0205 C.ar    1  LIG11       0.0372
     26 C          -5.7698    0.4235   -3.1140 C.ar    1  LIG11      -0.0489
     27 C          -5.2247    5.0087   -4.1896 C.ar    1  LIG11      -0.0521
     28 C          -6.3848    5.1536   -6.7051 C.ar    1  LIG11      -0.0345
     29 C          -5.0712    6.1608   -4.9669 C.ar    1  LIG11      -0.0611
     30 C          -6.8939   -0.6982   -1.2115 C.ar    1  LIG11       0.2271
     31 C          -5.6699    6.2417   -6.2160 C.ar    1  LIG11      -0.0599
     32 C          -6.1522    0.7029   -8.1870 C.ar    1  LIG11       0.1837
     33 C          -6.4363    0.6179   -9.5712 C.ar    1  LIG11       0.0342
     34 C          -6.3234   -0.7341   -9.8331 C.ar    1  LIG11       0.1390
     35 C          -6.7041    1.6954  -10.5480 C.3     1  LIG11      -0.0330
     36 C          -7.7634   -1.7662    0.4521 C.ar    1  LIG11       0.1125
     37 C          -7.0317   -2.6234   -0.3279 C.ar    1  LIG11       0.0663
     38 C          -6.4344   -1.5626  -11.0487 C.3     1  LIG11      -0.0034
     39 H          -5.4192    1.5427   -6.6060 H       1  LIG11       0.1753
     40 H          -7.5269    3.8942    2.0550 H       1  LIG11       0.0364
     41 H          -9.1302    3.2477    2.0275 H       1  LIG11       0.0364
     42 H          -9.5290    4.2024    4.3041 H       1  LIG11       0.0235
     43 H          -7.9067    4.9111    4.2962 H       1  LIG11       0.0235
     44 H          -9.3170    5.9319    4.6093 H       1  LIG11       0.0235
     45 H         -11.1670    4.7199    2.3584 H       1  LIG11       0.0235
     46 H         -10.9749    6.4115    2.8360 H       1  LIG11       0.0235
     47 H         -10.7171    5.9451    1.1580 H       1  LIG11       0.0235
     48 H          -7.2203    6.5103    2.4380 H       1  LIG11       0.0235
     49 H          -8.3303    6.8757    1.1044 H       1  LIG11       0.0235
     50 H          -8.6544    7.4971    2.7253 H       1  LIG11       0.0235
     51 H          -8.6376    4.2067   -2.3398 H       1  LIG11       0.0514
     52 H          -7.1161    5.0715   -2.4404 H       1  LIG11       0.0514
     53 H          -6.1766    5.0508    0.9704 H       1  LIG11       0.0429
     54 H          -5.7269    3.5312    0.1690 H       1  LIG11       0.0429
     55 H          -5.5306    5.0987   -0.6706 H       1  LIG11       0.0429
     56 H          -7.8761    1.7948   -0.8624 H       1  LIG11       0.0628
     57 H          -4.8257    1.4470   -4.7224 H       1  LIG11       0.0624
     58 H          -5.2883   -0.5196   -3.3702 H       1  LIG11       0.0625
     59 H          -4.7471    4.9834   -3.2104 H       1  LIG11       0.0624
     60 H          -6.8186    5.2213   -7.7022 H       1  LIG11       0.0637
     61 H          -4.4916    6.9989   -4.5875 H       1  LIG11       0.0618
     62 H          -5.5672    7.1413   -6.8182 H       1  LIG11       0.0618
     63 H          -6.6482    2.6874  -10.0927 H       1  LIG11       0.0280
     64 H          -5.9643    1.6641  -11.3560 H       1  LIG11       0.0280
     65 H          -7.6970    1.5747  -10.9921 H       1  LIG11       0.0280
     66 H          -8.3557   -1.8587    1.3501 H       1  LIG11       0.1046
     67 H          -6.8794   -3.6849   -0.1936 H       1  LIG11       0.0862
     68 H          -6.4849   -2.6277  -10.8001 H       1  LIG11       0.0309
     69 H          -7.3332   -1.3042  -11.6156 H       1  LIG11       0.0309
     70 H          -5.5625   -1.4077  -11.6921 H       1  LIG11       0.0309
@<TRIPOS>BOND
     1     1     3    2
     2     1     4    2
     3     1     8    1
     4     1    23    1
     5     2    16    2
     6     5    30   ar
     7     5    36   ar
     8     6    10   ar
     9     6    34   ar
    10     7    16   am
    11     7    17    1
    12     7    21    1
    13     8    32    1
    14     9    30   ar
    15     9    37   ar
    16    10    32   ar
    17    11    12    1
    18    11    13    1
    19    11    14    1
    20    11    15    1
    21    12    16    1
    22    17    18    1
    23    18    19   ar
    24    18    22   ar
    25    19    20    1
    26    19    24   ar
    27    20    23   ar
    28    20    27   ar
    29    22    25   ar
    30    23    28   ar
    31    24    26   ar
    32    25    26   ar
    33    25    30    1
    34    27    29   ar
    35    28    31   ar
    36    29    31   ar
    37    32    33   ar
    38    33    34   ar
    39    33    35    1
    40    34    38    1
    41    36    37   ar
    42     8    39    1
    43    12    40    1
    44    12    41    1
    45    13    42    1
    46    13    43    1
    47    13    44    1
    48    14    45    1
    49    14    46    1
    50    14    47    1
    51    15    48    1
    52    15    49    1
    53    15    50    1
    54    17    51    1
    55    17    52    1
    56    21    53    1
    57    21    54    1
    58    21    55    1
    59    22    56    1
    60    24    57    1
    61    26    58    1
    62    27    59    1
    63    28    60    1
    64    29    61    1
    65    31    62    1
    66    35    63    1
    67    35    64    1
    68    35    65    1
    69    36    66    1
    70    37    67    1
    71    38    68    1
    72    38    69    1
    73    38    70    1
@<TRIPOS>MOLECULE
../1EDN/PCA2_17-21.pdb
 47 48 0 0 0
SMALL
GASTEIGER

@<TRIPOS>ATOM
      1  N         -4.4680    0.3970   -1.5420 N.3    17  LEU17      -0.1231
      2  CA        -5.5730   -0.5090   -1.8150 C.3    17  LEU17       0.1693
      3  CB        -5.9860   -1.2020   -0.4580 C.3    17  LEU17       0.0284
      4  CG        -7.1280   -2.2100   -0.5390 C.3    17  LEU17       0.0019
      5  CD1       -6.7120   -3.3620   -1.4700 C.3    17  LEU17       0.0001
      6  CD2       -7.4980   -2.5610    0.9130 C.3    17  LEU17       0.0001
      7  C         -6.7000    0.2280   -2.5610 C.2    17  LEU17       0.2592
      8  O         -7.1860   -0.2780   -3.5510 O.2    17  LEU17      -0.2718
      9  N         -7.2650    1.2690   -1.9650 N.am   18  ASP18      -0.1960
     10  CA        -8.5260    1.8930   -2.2590 C.3    18  ASP18       0.1840
     11  CB        -9.6810    1.0560   -1.6740 C.3    18  ASP18       0.1450
     12  CG       -11.0010    1.6360   -2.1090 C.2    18  ASP18       0.3671
     13  OD1      -11.5960    2.3310   -1.2790 O.co2  18  ASP18      -0.2456
     14  OD2      -11.5460    1.2700   -3.1630 O.co2  18  ASP18      -0.2456
     15  C         -8.5570    3.3770   -1.7380 C.2    18  ASP18       0.2622
     16  O         -8.6960    4.2620   -2.5680 O.2    18  ASP18      -0.2715
     17  N         -8.4180    3.5730   -0.4160 N.am   19  ILE19      -0.1963
     18  CA        -8.3980    4.9040    0.1930 C.3    19  ILE19       0.1727
     19  CB        -8.4260    4.8620    1.7600 C.3    19  ILE19       0.0290
     20  CG2       -7.7310    6.0060    2.5190 C.3    19  ILE19       0.0023
     21  CG1       -9.9240    4.5740    2.2500 C.3    19  ILE19       0.0022
     22  CD1      -10.9740    5.6950    2.0110 C.3    19  ILE19       0.0001
     23  C         -7.1570    5.7010   -0.3260 C.2    19  ILE19       0.2616
     24  O         -7.3050    6.7970   -0.9200 O.2    19  ILE19      -0.2715
     25  N         -5.9900    5.0720   -0.2260 N.am   20  ILE20      -0.1963
     26  CA        -4.7520    5.3490   -0.9430 C.3    20  ILE20       0.1727
     27  CB        -3.5230    4.9310   -0.1080 C.3    20  ILE20       0.0290
     28  CG2       -2.1210    5.5060   -0.7390 C.3    20  ILE20       0.0023
     29  CG1       -3.5940    5.4760    1.3470 C.3    20  ILE20       0.0022
     30  CD1       -2.3570    5.1940    2.2260 C.3    20  ILE20       0.0001
     31  C         -4.7590    4.7050   -2.3650 C.2    20  ILE20       0.2617
     32  O         -4.2060    3.6200   -2.5900 O.2    20  ILE20      -0.2715
     33  N         -5.4060    5.3330   -3.3880 N.am   21  TRP21      -0.1938
     34  CA        -5.3950    4.7680   -4.7850 C.3    21  TRP21       0.2021
     35  CB        -6.6210    3.8650   -5.0310 C.3    21  TRP21       0.0612
     36  CG        -6.7890    3.3770   -6.4480 C.ar   21  TRP21       0.0007
     37  CD1       -7.1340    4.1960   -7.4760 C.ar   21  TRP21       0.0946
     38  NE1       -7.1740    3.4060   -8.6160 N.ar   21  TRP21      -0.2442
     39  CE2       -6.9360    2.0750   -8.3350 C.ar   21  TRP21       0.0810
     40  CZ2       -6.8300    1.0510   -9.2060 C.ar   21  TRP21       0.0191
     41  CH2       -6.3330   -0.2010   -8.7710 C.ar   21  TRP21       0.0015
     42  CZ3       -5.9560   -0.2520   -7.3640 C.ar   21  TRP21       0.0001
     43  CE3       -6.0150    0.8940   -6.5860 C.ar   21  TRP21       0.0012
     44  CD2       -6.6320    2.0560   -6.9830 C.ar   21  TRP21       0.0152
     45  C         -5.1960    5.8550   -5.8260 C.2    21  TRP21       0.3845
     46  O         -4.1840    5.6720   -6.5070 O.co2  21  TRP21      -0.2437
     47  OXT       -5.9640    6.8330   -6.0170 O.co2  21  TRP21      -0.2437
@<TRIPOS>BOND
     1    40    41   ar
     2    40    39   ar
     3    41    42   ar
     4    38    39   ar
     5    38    37   ar
     6    39    44   ar
     7    37    36   ar
     8    42    43   ar
     9    44    43   ar
    10    44    36   ar
    11    46    45   ar
    12    36    35    1
    13    47    45   ar
    14    45    34    1
    15    35    34    1
    16    34    33    1
    17     8     7    2
    18    33    31   am
    19    14    12   ar
    20    32    31    2
    21    16    15    2
    22     7     9   am
    23     7     2    1
    24    31    26    1
    25    10     9    1
    26    10    15    1
    27    10    11    1
    28    12    11    1
    29    12    13   ar
    30     2     1    1
    31     2     3    1
    32    15    17   am
    33     5     4    1
    34    26    25    1
    35    26    27    1
    36    24    23    2
    37    28    27    1
    38     4     3    1
    39     4     6    1
    40    17    18    1
    41    23    25   am
    42    23    18    1
    43    27    29    1
    44    18    19    1
    45    29    30    1
    46    19    21    1
    47    19    20    1
    48    22    21    1
