@<TRIPOS>MOLECULE
159594
 75 78 0 0 0
SMALL
GASTEIGER

@<TRIPOS>ATOM
      1 O         -10.7815    2.1888   -2.0396 O.co2   1  LIG11      -0.5493
      2 O         -10.6064   -0.0154   -2.6112 O.co2   1  LIG11      -0.5493
      3 O          -7.6173    1.4095   -8.2903 O.3     1  LIG11      -0.4526
      4 O          -5.0561    4.2609   -1.6006 O.2     1  LIG11      -0.2697
      5 O          -6.0595    3.2130   -8.6590 O.3     1  LIG11      -0.4526
      6 O          -5.2098   -3.3399   -0.4183 O.3     1  LIG11      -0.4951
      7 N          -7.2746    2.6767   -1.7564 N.4     1  LIG11       0.2481
      8 N          -5.6641    5.2825    0.3783 N.am    1  LIG11      -0.2971
      9 C          -8.8179    1.4243   -3.0781 C.3     1  LIG11       0.0574
     10 C          -8.6994    2.8502   -3.6603 C.3     1  LIG11       0.0378
     11 C          -8.1014    1.4051   -1.7260 C.3     1  LIG11       0.0143
     12 C          -8.1947    3.6488   -2.4568 C.3     1  LIG11      -0.0230
     13 C          -7.8585    2.9421   -4.9373 C.ar    1  LIG11      -0.0347
     14 C          -7.3162    0.1414   -1.4273 C.ar    1  LIG11       0.0011
     15 C          -6.8018    3.1628   -0.4093 C.3     1  LIG11       0.0468
     16 C         -10.2245    1.1791   -2.5573 C.2     1  LIG11       0.0513
     17 C          -8.1186    2.0349   -5.9860 C.ar    1  LIG11      -0.0125
     18 C          -5.7653    4.2853   -0.5879 C.2     1  LIG11       0.2608
     19 C          -6.9428    3.9965   -5.1849 C.ar    1  LIG11      -0.0544
     20 C          -7.9455   -0.8521   -0.6536 C.ar    1  LIG11      -0.0498
     21 C          -6.0145   -0.1026   -1.8790 C.ar    1  LIG11      -0.0498
     22 C          -7.4598    2.1921   -7.1898 C.ar    1  LIG11       0.1665
     23 C          -6.2919    4.1340   -6.4187 C.ar    1  LIG11      -0.0159
     24 C          -6.5726    3.2158   -7.4010 C.ar    1  LIG11       0.1662
     25 C          -7.2832   -2.0295   -0.2948 C.ar    1  LIG11      -0.0195
     26 C          -5.3525   -1.2830   -1.5138 C.ar    1  LIG11      -0.0195
     27 C          -4.6799    6.3485    0.1633 C.3     1  LIG11       0.0148
     28 C          -6.7627    5.5954    1.3030 C.3     1  LIG11       0.0148
     29 C          -5.9744   -2.2445   -0.7119 C.ar    1  LIG11       0.1201
     30 C          -3.2104    5.9081    0.1892 C.3     1  LIG11      -0.0374
     31 C          -7.8340    6.4457    0.6099 C.3     1  LIG11      -0.0374
     32 C          -6.7414    2.0735   -9.2240 C.3     1  LIG11       0.2332
     33 C          -2.7179    5.3628    1.5322 C.3     1  LIG11      -0.0545
     34 C          -9.1058    6.6249    1.4366 C.3     1  LIG11      -0.0545
     35 C          -3.1269    3.9228    1.8016 C.3     1  LIG11      -0.0652
     36 C          -9.9708    5.3735    1.4688 C.3     1  LIG11      -0.0652
     37 C          -5.7951   -4.3174    0.4358 C.3     1  LIG11       0.0788
     38 H          -6.4466    2.5503   -2.3539 H       1  LIG11       0.2045
     39 H          -8.4953    0.6217   -3.7478 H       1  LIG11       0.0427
     40 H          -9.6755    3.2575   -3.9569 H       1  LIG11       0.0409
     41 H          -8.7610    1.5609   -0.8589 H       1  LIG11       0.0911
     42 H          -8.9993    3.8989   -1.7562 H       1  LIG11       0.0821
     43 H          -7.6420    4.5634   -2.6689 H       1  LIG11       0.0821
     44 H          -7.6909    3.4615    0.1435 H       1  LIG11       0.0913
     45 H          -6.3060    2.3279    0.0950 H       1  LIG11       0.0913
     46 H          -8.8518    1.2384   -5.8864 H       1  LIG11       0.0658
     47 H          -6.7304    4.7669   -4.4501 H       1  LIG11       0.0622
     48 H          -8.9838   -0.7272   -0.3382 H       1  LIG11       0.0623
     49 H          -5.4910    0.5974   -2.5232 H       1  LIG11       0.0623
     50 H          -5.6087    4.9557   -6.6054 H       1  LIG11       0.0655
     51 H          -7.8291   -2.7576    0.2966 H       1  LIG11       0.0654
     52 H          -4.3386   -1.4627   -1.8661 H       1  LIG11       0.0654
     53 H          -4.9021    6.8093   -0.8072 H       1  LIG11       0.0464
     54 H          -4.8211    7.1245    0.9250 H       1  LIG11       0.0464
     55 H          -7.1787    4.6636    1.6918 H       1  LIG11       0.0464
     56 H          -6.3513    6.1245    2.1706 H       1  LIG11       0.0464
     57 H          -2.9960    5.1851   -0.6044 H       1  LIG11       0.0280
     58 H          -2.6093    6.7968   -0.0448 H       1  LIG11       0.0280
     59 H          -7.4109    7.4364    0.4013 H       1  LIG11       0.0280
     60 H          -8.0926    6.0181   -0.3663 H       1  LIG11       0.0280
     61 H          -5.9907    1.3560   -9.5742 H       1  LIG11       0.1166
     62 H          -7.3345    2.4100  -10.0825 H       1  LIG11       0.1166
     63 H          -1.6213    5.4015    1.5282 H       1  LIG11       0.0263
     64 H          -3.0516    6.0061    2.3541 H       1  LIG11       0.0263
     65 H          -8.8560    6.9328    2.4579 H       1  LIG11       0.0263
     66 H          -9.6957    7.4364    0.9933 H       1  LIG11       0.0263
     67 H          -2.8941    3.2785    0.9477 H       1  LIG11       0.0230
     68 H          -2.5846    3.5369    2.6710 H       1  LIG11       0.0230
     69 H          -4.1938    3.8388    2.0211 H       1  LIG11       0.0230
     70 H          -9.4658    4.5471    1.9759 H       1  LIG11       0.0230
     71 H         -10.9040    5.5755    2.0042 H       1  LIG11       0.0230
     72 H         -10.2287    5.0491    0.4550 H       1  LIG11       0.0230
     73 H          -5.0564   -5.1085    0.5970 H       1  LIG11       0.0660
     74 H          -6.0420   -3.8905    1.4139 H       1  LIG11       0.0660
     75 H          -6.6752   -4.7739   -0.0295 H       1  LIG11       0.0660
@<TRIPOS>BOND
     1     1    16   ar
     2     2    16   ar
     3     3    22    1
     4     3    32    1
     5     4    18    2
     6     5    24    1
     7     5    32    1
     8     6    29    1
     9     6    37    1
    10     7    11    1
    11     7    12    1
    12     7    15    1
    13     8    18   am
    14     8    27    1
    15     8    28    1
    16     9    10    1
    17     9    11    1
    18     9    16    1
    19    10    12    1
    20    10    13    1
    21    11    14    1
    22    13    17   ar
    23    13    19   ar
    24    14    20   ar
    25    14    21   ar
    26    15    18    1
    27    17    22   ar
    28    19    23   ar
    29    20    25   ar
    30    21    26   ar
    31    22    24   ar
    32    23    24   ar
    33    25    29   ar
    34    26    29   ar
    35    27    30    1
    36    28    31    1
    37    30    33    1
    38    31    34    1
    39    33    35    1
    40    34    36    1
    41     7    38    1
    42     9    39    1
    43    10    40    1
    44    11    41    1
    45    12    42    1
    46    12    43    1
    47    15    44    1
    48    15    45    1
    49    17    46    1
    50    19    47    1
    51    20    48    1
    52    21    49    1
    53    23    50    1
    54    25    51    1
    55    26    52    1
    56    27    53    1
    57    27    54    1
    58    28    55    1
    59    28    56    1
    60    30    57    1
    61    30    58    1
    62    31    59    1
    63    31    60    1
    64    32    61    1
    65    32    62    1
    66    33    63    1
    67    33    64    1
    68    34    65    1
    69    34    66    1
    70    35    67    1
    71    35    68    1
    72    35    69    1
    73    36    70    1
    74    36    71    1
    75    36    72    1
    76    37    73    1
    77    37    74    1
    78    37    75    1
@<TRIPOS>MOLECULE
../1EDN/PCA2_17-21.pdb
 47 48 0 0 0
SMALL
GASTEIGER

@<TRIPOS>ATOM
      1  N         -4.4680    0.3970   -1.5420 N.3    17  LEU17      -0.1231
      2  CA        -5.5730   -0.5090   -1.8150 C.3    17  LEU17       0.1693
      3  CB        -5.9860   -1.2020   -0.4580 C.3    17  LEU17       0.0284
      4  CG        -7.1280   -2.2100   -0.5390 C.3    17  LEU17       0.0019
      5  CD1       -6.7120   -3.3620   -1.4700 C.3    17  LEU17       0.0001
      6  CD2       -7.4980   -2.5610    0.9130 C.3    17  LEU17       0.0001
      7  C         -6.7000    0.2280   -2.5610 C.2    17  LEU17       0.2592
      8  O         -7.1860   -0.2780   -3.5510 O.2    17  LEU17      -0.2718
      9  N         -7.2650    1.2690   -1.9650 N.am   18  ASP18      -0.1960
     10  CA        -8.5260    1.8930   -2.2590 C.3    18  ASP18       0.1840
     11  CB        -9.6810    1.0560   -1.6740 C.3    18  ASP18       0.1450
     12  CG       -11.0010    1.6360   -2.1090 C.2    18  ASP18       0.3671
     13  OD1      -11.5960    2.3310   -1.2790 O.co2  18  ASP18      -0.2456
     14  OD2      -11.5460    1.2700   -3.1630 O.co2  18  ASP18      -0.2456
     15  C         -8.5570    3.3770   -1.7380 C.2    18  ASP18       0.2622
     16  O         -8.6960    4.2620   -2.5680 O.2    18  ASP18      -0.2715
     17  N         -8.4180    3.5730   -0.4160 N.am   19  ILE19      -0.1963
     18  CA        -8.3980    4.9040    0.1930 C.3    19  ILE19       0.1727
     19  CB        -8.4260    4.8620    1.7600 C.3    19  ILE19       0.0290
     20  CG2       -7.7310    6.0060    2.5190 C.3    19  ILE19       0.0023
     21  CG1       -9.9240    4.5740    2.2500 C.3    19  ILE19       0.0022
     22  CD1      -10.9740    5.6950    2.0110 C.3    19  ILE19       0.0001
     23  C         -7.1570    5.7010   -0.3260 C.2    19  ILE19       0.2616
     24  O         -7.3050    6.7970   -0.9200 O.2    19  ILE19      -0.2715
     25  N         -5.9900    5.0720   -0.2260 N.am   20  ILE20      -0.1963
     26  CA        -4.7520    5.3490   -0.9430 C.3    20  ILE20       0.1727
     27  CB        -3.5230    4.9310   -0.1080 C.3    20  ILE20       0.0290
     28  CG2       -2.1210    5.5060   -0.7390 C.3    20  ILE20       0.0023
     29  CG1       -3.5940    5.4760    1.3470 C.3    20  ILE20       0.0022
     30  CD1       -2.3570    5.1940    2.2260 C.3    20  ILE20       0.0001
     31  C         -4.7590    4.7050   -2.3650 C.2    20  ILE20       0.2617
     32  O         -4.2060    3.6200   -2.5900 O.2    20  ILE20      -0.2715
     33  N         -5.4060    5.3330   -3.3880 N.am   21  TRP21      -0.1938
     34  CA        -5.3950    4.7680   -4.7850 C.3    21  TRP21       0.2021
     35  CB        -6.6210    3.8650   -5.0310 C.3    21  TRP21       0.0612
     36  CG        -6.7890    3.3770   -6.4480 C.ar   21  TRP21       0.0007
     37  CD1       -7.1340    4.1960   -7.4760 C.ar   21  TRP21       0.0946
     38  NE1       -7.1740    3.4060   -8.6160 N.ar   21  TRP21      -0.2442
     39  CE2       -6.9360    2.0750   -8.3350 C.ar   21  TRP21       0.0810
     40  CZ2       -6.8300    1.0510   -9.2060 C.ar   21  TRP21       0.0191
     41  CH2       -6.3330   -0.2010   -8.7710 C.ar   21  TRP21       0.0015
     42  CZ3       -5.9560   -0.2520   -7.3640 C.ar   21  TRP21       0.0001
     43  CE3       -6.0150    0.8940   -6.5860 C.ar   21  TRP21       0.0012
     44  CD2       -6.6320    2.0560   -6.9830 C.ar   21  TRP21       0.0152
     45  C         -5.1960    5.8550   -5.8260 C.2    21  TRP21       0.3845
     46  O         -4.1840    5.6720   -6.5070 O.co2  21  TRP21      -0.2437
     47  OXT       -5.9640    6.8330   -6.0170 O.co2  21  TRP21      -0.2437
@<TRIPOS>BOND
     1    40    41   ar
     2    40    39   ar
     3    41    42   ar
     4    38    39   ar
     5    38    37   ar
     6    39    44   ar
     7    37    36   ar
     8    42    43   ar
     9    44    43   ar
    10    44    36   ar
    11    46    45   ar
    12    36    35    1
    13    47    45   ar
    14    45    34    1
    15    35    34    1
    16    34    33    1
    17     8     7    2
    18    33    31   am
    19    14    12   ar
    20    32    31    2
    21    16    15    2
    22     7     9   am
    23     7     2    1
    24    31    26    1
    25    10     9    1
    26    10    15    1
    27    10    11    1
    28    12    11    1
    29    12    13   ar
    30     2     1    1
    31     2     3    1
    32    15    17   am
    33     5     4    1
    34    26    25    1
    35    26    27    1
    36    24    23    2
    37    28    27    1
    38     4     3    1
    39     4     6    1
    40    17    18    1
    41    23    25   am
    42    23    18    1
    43    27    29    1
    44    18    19    1
    45    29    30    1
    46    19    21    1
    47    19    20    1
    48    22    21    1
