@<TRIPOS>MOLECULE
2-[[2-[2-butyl-4-[(Z)-2-carboxy-3-(6-methoxy-1,3-benzodioxol-5-yl)prop-1-enyl]pyrazol-3-yl]-5-methoxyphenoxy]methyl]benzoic acid
 77 81 0 0 0
SMALL
GASTEIGER

@<TRIPOS>ATOM
      1 O          -8.2359    4.5569    0.4273 O.3     1  LIG11      -0.4866
      2 O          -7.7527    1.5224   -9.3858 O.3     1  LIG11      -0.4526
      3 O          -6.4686   -0.3100   -8.4848 O.3     1  LIG11      -0.4525
      4 O          -4.9079    2.3817   -4.7770 O.3     1  LIG11      -0.4947
      5 O         -10.3410    1.0028   -2.0785 O.3     1  LIG11      -0.4950
      6 O          -4.9058    5.6301   -7.5951 O.co2   1  LIG11      -0.5449
      7 O          -3.5510    6.6809   -6.1067 O.co2   1  LIG11      -0.5449
      8 O          -9.7522    7.1261    0.3416 O.co2   1  LIG11      -0.5446
      9 O         -11.4003    5.7578   -0.4422 O.co2   1  LIG11      -0.5446
     10 N          -5.6209    5.4189   -0.5364 N.ar    1  LIG11      -0.2630
     11 N          -4.2718    5.3409   -0.4312 N.ar    1  LIG11      -0.1785
     12 C          -6.0927    4.8171   -1.7088 C.ar    1  LIG11       0.0795
     13 C          -6.3099    6.3826    0.3102 C.3     1  LIG11       0.0422
     14 C          -5.6708    7.7734    0.3559 C.3     1  LIG11      -0.0336
     15 C          -5.0589    5.1870   -2.6002 C.ar    1  LIG11       0.0207
     16 C          -7.3297    3.9608   -1.7340 C.ar    1  LIG11       0.0425
     17 C          -6.4159    8.6486    1.3665 C.3     1  LIG11      -0.0542
     18 C          -3.9368    5.3582   -1.7173 C.ar    1  LIG11       0.0571
     19 C          -4.8006    5.4202   -4.0024 C.2     1  LIG11      -0.0459
     20 C          -6.5919    4.6148   -5.6922 C.3     1  LIG11       0.0029
     21 C          -8.2883    3.7801   -0.6975 C.ar    1  LIG11       0.1336
     22 C          -5.3202    5.2592   -5.2389 C.2     1  LIG11      -0.0200
     23 C          -6.4551    3.2544   -6.3885 C.ar    1  LIG11       0.0023
     24 C          -7.4668    3.0880   -2.8153 C.ar    1  LIG11      -0.0456
     25 C          -6.0448   10.1133    1.2251 C.3     1  LIG11      -0.0652
     26 C          -9.3364    2.8391   -0.8270 C.ar    1  LIG11       0.0224
     27 C          -5.6856    2.1646   -5.8857 C.ar    1  LIG11       0.1273
     28 C          -7.1858    3.0706   -7.5840 C.ar    1  LIG11      -0.0092
     29 C          -8.4860    2.1384   -2.9403 C.ar    1  LIG11      -0.0191
     30 C          -7.1290    1.8494   -8.2197 C.ar    1  LIG11       0.1667
     31 C          -9.4048    1.9874   -1.9220 C.ar    1  LIG11       0.1236
     32 C          -6.3970    0.8061   -7.7101 C.ar    1  LIG11       0.1697
     33 C          -5.6657    0.9290   -6.5516 C.ar    1  LIG11       0.0258
     34 C          -4.5061    5.9128   -6.4281 C.2     1  LIG11       0.0680
     35 C          -8.6342    4.0171    1.6825 C.3     1  LIG11       0.1153
     36 C          -7.2622    0.1827   -9.5808 C.3     1  LIG11       0.2332
     37 C          -9.8550    4.6210    2.3632 C.ar    1  LIG11      -0.0016
     38 C         -10.7379    5.5634    1.7997 C.ar    1  LIG11       0.0037
     39 C         -10.1214    4.1782    3.6797 C.ar    1  LIG11      -0.0547
     40 C          -4.7031    1.2773   -3.9070 C.3     1  LIG11       0.0788
     41 C         -11.8501    6.0130    2.5462 C.ar    1  LIG11      -0.0525
     42 C         -11.2194    4.6448    4.4098 C.ar    1  LIG11      -0.0614
     43 C         -10.5222    0.2245   -0.8992 C.3     1  LIG11       0.0788
     44 C         -12.0898    5.5620    3.8391 C.ar    1  LIG11      -0.0611
     45 C         -10.5867    6.1712    0.4336 C.2     1  LIG11       0.0720
     46 H          -7.3093    6.5161   -0.0950 H       1  LIG11       0.0509
     47 H          -6.3419    5.9454    1.3109 H       1  LIG11       0.0509
     48 H          -4.6118    7.7190    0.6380 H       1  LIG11       0.0283
     49 H          -5.7114    8.2205   -0.6441 H       1  LIG11       0.0283
     50 H          -7.4958    8.5456    1.2329 H       1  LIG11       0.0263
     51 H          -6.1839    8.3077    2.3818 H       1  LIG11       0.0263
     52 H          -2.9032    5.5274   -1.9865 H       1  LIG11       0.0854
     53 H          -3.8387    5.9445   -4.0731 H       1  LIG11       0.0628
     54 H          -7.3246    4.5500   -4.8866 H       1  LIG11       0.0363
     55 H          -7.0825    5.3159   -6.3854 H       1  LIG11       0.0363
     56 H          -6.7211    3.1219   -3.5884 H       1  LIG11       0.0626
     57 H          -6.3257   10.4901    0.2380 H       1  LIG11       0.0230
     58 H          -6.5737   10.7084    1.9771 H       1  LIG11       0.0230
     59 H          -4.9692   10.2651    1.3617 H       1  LIG11       0.0230
     60 H         -10.1233    2.8074   -0.0828 H       1  LIG11       0.0691
     61 H          -7.7528    3.8873   -8.0166 H       1  LIG11       0.0659
     62 H          -8.5304    1.5112   -3.8269 H       1  LIG11       0.0654
     63 H          -5.0733    0.0973   -6.2034 H       1  LIG11       0.0692
     64 H          -8.7342    2.9236    1.6557 H       1  LIG11       0.0748
     65 H          -7.7877    4.2091    2.3526 H       1  LIG11       0.0748
     66 H          -8.1191   -0.4850   -9.7196 H       1  LIG11       0.1166
     67 H          -6.6517    0.1598  -10.4901 H       1  LIG11       0.1166
     68 H          -9.4550    3.4588    4.1488 H       1  LIG11       0.0622
     69 H          -4.3903    1.6706   -2.9359 H       1  LIG11       0.0660
     70 H          -5.6194    0.6980   -3.7526 H       1  LIG11       0.0660
     71 H          -3.8980    0.6364   -4.2844 H       1  LIG11       0.0660
     72 H         -12.5205    6.7363    2.0846 H       1  LIG11       0.0624
     73 H         -11.3907    4.2910    5.4207 H       1  LIG11       0.0618
     74 H         -11.0586   -0.6890   -1.1823 H       1  LIG11       0.0660
     75 H          -9.5625   -0.0803   -0.4635 H       1  LIG11       0.0660
     76 H         -11.1331    0.7544   -0.1620 H       1  LIG11       0.0660
     77 H         -12.9481    5.9349    4.3882 H       1  LIG11       0.0618
@<TRIPOS>BOND
     1     1    35    1
     2     1    21    1
     3     2    36    1
     4     2    30    1
     5     3    32    1
     6     3    36    1
     7     4    27    1
     8     4    40    1
     9     5    31    1
    10     5    43    1
    11     6    34   ar
    12     7    34   ar
    13     8    45   ar
    14     9    45   ar
    15    10    11   ar
    16    10    12   ar
    17    10    13    1
    18    11    18   ar
    19    12    15   ar
    20    13    14    1
    21    14    17    1
    22    15    18   ar
    23    15    19    1
    24    16    24   ar
    25    16    21   ar
    26    16    12    1
    27    17    25    1
    28    19    22    2
    29    20    22    1
    30    20    23    1
    31    21    26   ar
    32    22    34    1
    33    23    28   ar
    34    23    27   ar
    35    24    29   ar
    36    26    31   ar
    37    27    33   ar
    38    28    30   ar
    39    29    31   ar
    40    30    32   ar
    41    32    33   ar
    42    35    37    1
    43    37    39   ar
    44    37    38   ar
    45    38    41   ar
    46    38    45    1
    47    39    42   ar
    48    41    44   ar
    49    42    44   ar
    50    13    46    1
    51    13    47    1
    52    14    48    1
    53    14    49    1
    54    17    50    1
    55    17    51    1
    56    18    52    1
    57    19    53    1
    58    20    54    1
    59    20    55    1
    60    24    56    1
    61    25    57    1
    62    25    58    1
    63    25    59    1
    64    26    60    1
    65    28    61    1
    66    29    62    1
    67    33    63    1
    68    35    64    1
    69    35    65    1
    70    36    66    1
    71    36    67    1
    72    39    68    1
    73    40    69    1
    74    40    70    1
    75    40    71    1
    76    41    72    1
    77    42    73    1
    78    43    74    1
    79    43    75    1
    80    43    76    1
    81    44    77    1
@<TRIPOS>MOLECULE
../1EDN/PCA2_17-21.pdb
 47 48 0 0 0
SMALL
GASTEIGER

@<TRIPOS>ATOM
      1  N         -4.4680    0.3970   -1.5420 N.3    17  LEU17      -0.1231
      2  CA        -5.5730   -0.5090   -1.8150 C.3    17  LEU17       0.1693
      3  CB        -5.9860   -1.2020   -0.4580 C.3    17  LEU17       0.0284
      4  CG        -7.1280   -2.2100   -0.5390 C.3    17  LEU17       0.0019
      5  CD1       -6.7120   -3.3620   -1.4700 C.3    17  LEU17       0.0001
      6  CD2       -7.4980   -2.5610    0.9130 C.3    17  LEU17       0.0001
      7  C         -6.7000    0.2280   -2.5610 C.2    17  LEU17       0.2592
      8  O         -7.1860   -0.2780   -3.5510 O.2    17  LEU17      -0.2718
      9  N         -7.2650    1.2690   -1.9650 N.am   18  ASP18      -0.1960
     10  CA        -8.5260    1.8930   -2.2590 C.3    18  ASP18       0.1840
     11  CB        -9.6810    1.0560   -1.6740 C.3    18  ASP18       0.1450
     12  CG       -11.0010    1.6360   -2.1090 C.2    18  ASP18       0.3671
     13  OD1      -11.5960    2.3310   -1.2790 O.co2  18  ASP18      -0.2456
     14  OD2      -11.5460    1.2700   -3.1630 O.co2  18  ASP18      -0.2456
     15  C         -8.5570    3.3770   -1.7380 C.2    18  ASP18       0.2622
     16  O         -8.6960    4.2620   -2.5680 O.2    18  ASP18      -0.2715
     17  N         -8.4180    3.5730   -0.4160 N.am   19  ILE19      -0.1963
     18  CA        -8.3980    4.9040    0.1930 C.3    19  ILE19       0.1727
     19  CB        -8.4260    4.8620    1.7600 C.3    19  ILE19       0.0290
     20  CG2       -7.7310    6.0060    2.5190 C.3    19  ILE19       0.0023
     21  CG1       -9.9240    4.5740    2.2500 C.3    19  ILE19       0.0022
     22  CD1      -10.9740    5.6950    2.0110 C.3    19  ILE19       0.0001
     23  C         -7.1570    5.7010   -0.3260 C.2    19  ILE19       0.2616
     24  O         -7.3050    6.7970   -0.9200 O.2    19  ILE19      -0.2715
     25  N         -5.9900    5.0720   -0.2260 N.am   20  ILE20      -0.1963
     26  CA        -4.7520    5.3490   -0.9430 C.3    20  ILE20       0.1727
     27  CB        -3.5230    4.9310   -0.1080 C.3    20  ILE20       0.0290
     28  CG2       -2.1210    5.5060   -0.7390 C.3    20  ILE20       0.0023
     29  CG1       -3.5940    5.4760    1.3470 C.3    20  ILE20       0.0022
     30  CD1       -2.3570    5.1940    2.2260 C.3    20  ILE20       0.0001
     31  C         -4.7590    4.7050   -2.3650 C.2    20  ILE20       0.2617
     32  O         -4.2060    3.6200   -2.5900 O.2    20  ILE20      -0.2715
     33  N         -5.4060    5.3330   -3.3880 N.am   21  TRP21      -0.1938
     34  CA        -5.3950    4.7680   -4.7850 C.3    21  TRP21       0.2021
     35  CB        -6.6210    3.8650   -5.0310 C.3    21  TRP21       0.0612
     36  CG        -6.7890    3.3770   -6.4480 C.ar   21  TRP21       0.0007
     37  CD1       -7.1340    4.1960   -7.4760 C.ar   21  TRP21       0.0946
     38  NE1       -7.1740    3.4060   -8.6160 N.ar   21  TRP21      -0.2442
     39  CE2       -6.9360    2.0750   -8.3350 C.ar   21  TRP21       0.0810
     40  CZ2       -6.8300    1.0510   -9.2060 C.ar   21  TRP21       0.0191
     41  CH2       -6.3330   -0.2010   -8.7710 C.ar   21  TRP21       0.0015
     42  CZ3       -5.9560   -0.2520   -7.3640 C.ar   21  TRP21       0.0001
     43  CE3       -6.0150    0.8940   -6.5860 C.ar   21  TRP21       0.0012
     44  CD2       -6.6320    2.0560   -6.9830 C.ar   21  TRP21       0.0152
     45  C         -5.1960    5.8550   -5.8260 C.2    21  TRP21       0.3845
     46  O         -4.1840    5.6720   -6.5070 O.co2  21  TRP21      -0.2437
     47  OXT       -5.9640    6.8330   -6.0170 O.co2  21  TRP21      -0.2437
@<TRIPOS>BOND
     1    40    41   ar
     2    40    39   ar
     3    41    42   ar
     4    38    39   ar
     5    38    37   ar
     6    39    44   ar
     7    37    36   ar
     8    42    43   ar
     9    44    43   ar
    10    44    36   ar
    11    46    45   ar
    12    36    35    1
    13    47    45   ar
    14    45    34    1
    15    35    34    1
    16    34    33    1
    17     8     7    2
    18    33    31   am
    19    14    12   ar
    20    32    31    2
    21    16    15    2
    22     7     9   am
    23     7     2    1
    24    31    26    1
    25    10     9    1
    26    10    15    1
    27    10    11    1
    28    12    11    1
    29    12    13   ar
    30     2     1    1
    31     2     3    1
    32    15    17   am
    33     5     4    1
    34    26    25    1
    35    26    27    1
    36    24    23    2
    37    28    27    1
    38     4     3    1
    39     4     6    1
    40    17    18    1
    41    23    25   am
    42    23    18    1
    43    27    29    1
    44    18    19    1
    45    29    30    1
    46    19    21    1
    47    19    20    1
    48    22    21    1
