@<TRIPOS>MOLECULE
*****
 67 70 0 0 0
SMALL
GASTEIGER

@<TRIPOS>ATOM
      1 C          -8.1063    1.1523   -8.1670 C.ar    1  LIG11       0.0483
      2 C          -7.1669    0.8143   -9.1134 C.ar    1  LIG11       0.0543
      3 C          -6.0333    1.5926   -9.1285 C.ar    1  LIG11       0.0483
      4 N          -5.8230    2.6195   -8.2770 N.ar    1  LIG11      -0.2022
      5 N          -7.9535    2.1712   -7.2942 N.ar    1  LIG11      -0.2022
      6 C          -9.4471    2.0003   -1.9819 C.ar    1  LIG11      -0.0504
      7 C          -9.2922    3.1388   -2.7742 C.ar    1  LIG11      -0.0583
      8 C          -8.1716    3.9627   -2.6191 C.ar    1  LIG11      -0.0535
      9 C          -7.1682    3.6729   -1.6758 C.ar    1  LIG11      -0.0094
     10 C          -7.3515    2.5351   -0.8727 C.ar    1  LIG11      -0.0535
     11 C          -8.4767    1.7143   -1.0178 C.ar    1  LIG11      -0.0583
     12 C         -10.1133    4.5897    3.3144 C.ar    1  LIG11      -0.0561
     13 C          -8.8451    5.1195    3.0540 C.ar    1  LIG11      -0.0348
     14 C          -8.4950    5.4431    1.7460 C.ar    1  LIG11       0.1086
     15 C          -9.4123    5.2764    0.7117 C.ar    1  LIG11      -0.0348
     16 C         -10.6717    4.7354    0.9775 C.ar    1  LIG11      -0.0561
     17 C         -12.4430    3.7928    2.5963 C.3     1  LIG11       0.0132
     18 C         -11.0486    4.3688    2.2816 C.ar    1  LIG11      -0.0394
     19 C         -13.2199    3.3544    1.3302 C.3     1  LIG11      -0.0537
     20 C         -12.3706    2.5722    3.5619 C.3     1  LIG11       0.0533
     21 C         -13.2729    4.9009    3.2826 C.3     1  LIG11      -0.0537
     22 O         -11.5623    1.5068    3.0702 O.3     1  LIG11      -0.3942
     23 S          -6.9142    6.1639    1.3865 S.O2    1  LIG11       0.0735
     24 O          -6.3294    6.5775    2.6453 O.2     1  LIG11      -0.1499
     25 O          -7.1050    7.0950    0.2941 O.2     1  LIG11      -0.1499
     26 N          -6.0298    4.8052    0.8838 N.pl3   1  LIG11      -0.1988
     27 C          -5.9515    4.5061   -1.5719 C.ar    1  LIG11       0.0847
     28 C          -5.1816    4.8630   -2.6759 C.ar    1  LIG11       0.2276
     29 N          -4.0482    5.5943   -2.6251 N.ar    1  LIG11      -0.2008
     30 C          -3.6530    5.9743   -1.4084 C.ar    1  LIG11       0.1219
     31 N          -4.2668    5.6795   -0.2612 N.ar    1  LIG11      -0.2186
     32 C          -5.4066    4.9781   -0.3837 C.ar    1  LIG11       0.1524
     33 C         -10.6283    1.0932   -2.1549 C.3     1  LIG11      -0.0397
     34 O          -5.5112    4.3034   -3.8948 O.3     1  LIG11      -0.4724
     35 C          -5.1638    5.1061   -5.0282 C.3     1  LIG11       0.1252
     36 C          -5.2884    4.2352   -6.2774 C.3     1  LIG11       0.1267
     37 O          -6.6600    3.8804   -6.4747 O.3     1  LIG11      -0.4590
     38 C          -6.8002    2.8517   -7.3803 C.ar    1  LIG11       0.3180
     39 BR         -7.4138   -0.6142  -10.3054 Br      1  LIG11      -0.0472
     40 H          -9.0385    0.6039   -8.0691 H       1  LIG11       0.0843
     41 H          -5.2310    1.4164   -9.8389 H       1  LIG11       0.0843
     42 H         -10.0275    3.3875   -3.5364 H       1  LIG11       0.0620
     43 H          -8.0821    4.8323   -3.2687 H       1  LIG11       0.0624
     44 H          -6.6059    2.2568   -0.1307 H       1  LIG11       0.0624
     45 H          -8.5780    0.8371   -0.3822 H       1  LIG11       0.0620
     46 H         -10.3605    4.3559    4.3477 H       1  LIG11       0.0621
     47 H          -8.1514    5.2803    3.8759 H       1  LIG11       0.0637
     48 H          -9.1594    5.5642   -0.3056 H       1  LIG11       0.0637
     49 H         -11.3445    4.6177    0.1324 H       1  LIG11       0.0621
     50 H         -13.4723    4.2110    0.6939 H       1  LIG11       0.0239
     51 H         -14.1675    2.8719    1.5966 H       1  LIG11       0.0239
     52 H         -12.6481    2.6457    0.7210 H       1  LIG11       0.0239
     53 H         -13.3733    2.1666    3.7425 H       1  LIG11       0.0566
     54 H         -11.9742    2.8534    4.5429 H       1  LIG11       0.0566
     55 H         -12.8233    5.2181    4.2306 H       1  LIG11       0.0239
     56 H         -14.2898    4.5550    3.5013 H       1  LIG11       0.0239
     57 H         -13.3536    5.7901    2.6457 H       1  LIG11       0.0239
     58 H         -11.8483    1.2949    2.1674 H       1  LIG11       0.2094
     59 H          -5.2998    4.6865    1.5876 H       1  LIG11       0.1753
     60 H          -2.7477    6.5682   -1.3463 H       1  LIG11       0.1049
     61 H         -11.2229    1.3715   -3.0315 H       1  LIG11       0.0278
     62 H         -11.2751    1.1423   -1.2737 H       1  LIG11       0.0278
     63 H         -10.2937    0.0605   -2.2998 H       1  LIG11       0.0278
     64 H          -4.1313    5.4674   -4.9748 H       1  LIG11       0.0731
     65 H          -5.8563    5.9540   -5.0821 H       1  LIG11       0.0731
     66 H          -4.6762    3.3351   -6.1330 H       1  LIG11       0.0732
     67 H          -4.9313    4.8004   -7.1463 H       1  LIG11       0.0732
@<TRIPOS>BOND
     1     1     2   ar
     2     2     3   ar
     3     2    39    1
     4     3     4   ar
     5     4    38   ar
     6     5     1   ar
     7     6     7   ar
     8     6    33    1
     9     7     8   ar
    10     8     9   ar
    11     9    10   ar
    12    10    11   ar
    13    11     6   ar
    14    12    13   ar
    15    13    14   ar
    16    14    15   ar
    17    15    16   ar
    18    16    18   ar
    19    17    18    1
    20    17    21    1
    21    17    20    1
    22    17    19    1
    23    18    12   ar
    24    20    22    1
    25    23    26    1
    26    23    25    2
    27    23    24    2
    28    23    14    1
    29    26    32    1
    30    27    28   ar
    31    27     9    1
    32    28    29   ar
    33    29    30   ar
    34    30    31   ar
    35    31    32   ar
    36    32    27   ar
    37    34    35    1
    38    34    28    1
    39    35    36    1
    40    36    37    1
    41    37    38    1
    42    38     5   ar
    43     1    40    1
    44     3    41    1
    45     7    42    1
    46     8    43    1
    47    10    44    1
    48    11    45    1
    49    12    46    1
    50    13    47    1
    51    15    48    1
    52    16    49    1
    53    19    50    1
    54    19    51    1
    55    19    52    1
    56    20    53    1
    57    20    54    1
    58    21    55    1
    59    21    56    1
    60    21    57    1
    61    22    58    1
    62    26    59    1
    63    30    60    1
    64    33    61    1
    65    33    62    1
    66    33    63    1
    67    35    64    1
    68    35    65    1
    69    36    66    1
    70    36    67    1
@<TRIPOS>MOLECULE
../1EDN/PCA2_17-21.pdb
 47 48 0 0 0
SMALL
GASTEIGER

@<TRIPOS>ATOM
      1  N         -4.4680    0.3970   -1.5420 N.3    17  LEU17      -0.1231
      2  CA        -5.5730   -0.5090   -1.8150 C.3    17  LEU17       0.1693
      3  CB        -5.9860   -1.2020   -0.4580 C.3    17  LEU17       0.0284
      4  CG        -7.1280   -2.2100   -0.5390 C.3    17  LEU17       0.0019
      5  CD1       -6.7120   -3.3620   -1.4700 C.3    17  LEU17       0.0001
      6  CD2       -7.4980   -2.5610    0.9130 C.3    17  LEU17       0.0001
      7  C         -6.7000    0.2280   -2.5610 C.2    17  LEU17       0.2592
      8  O         -7.1860   -0.2780   -3.5510 O.2    17  LEU17      -0.2718
      9  N         -7.2650    1.2690   -1.9650 N.am   18  ASP18      -0.1960
     10  CA        -8.5260    1.8930   -2.2590 C.3    18  ASP18       0.1840
     11  CB        -9.6810    1.0560   -1.6740 C.3    18  ASP18       0.1450
     12  CG       -11.0010    1.6360   -2.1090 C.2    18  ASP18       0.3671
     13  OD1      -11.5960    2.3310   -1.2790 O.co2  18  ASP18      -0.2456
     14  OD2      -11.5460    1.2700   -3.1630 O.co2  18  ASP18      -0.2456
     15  C         -8.5570    3.3770   -1.7380 C.2    18  ASP18       0.2622
     16  O         -8.6960    4.2620   -2.5680 O.2    18  ASP18      -0.2715
     17  N         -8.4180    3.5730   -0.4160 N.am   19  ILE19      -0.1963
     18  CA        -8.3980    4.9040    0.1930 C.3    19  ILE19       0.1727
     19  CB        -8.4260    4.8620    1.7600 C.3    19  ILE19       0.0290
     20  CG2       -7.7310    6.0060    2.5190 C.3    19  ILE19       0.0023
     21  CG1       -9.9240    4.5740    2.2500 C.3    19  ILE19       0.0022
     22  CD1      -10.9740    5.6950    2.0110 C.3    19  ILE19       0.0001
     23  C         -7.1570    5.7010   -0.3260 C.2    19  ILE19       0.2616
     24  O         -7.3050    6.7970   -0.9200 O.2    19  ILE19      -0.2715
     25  N         -5.9900    5.0720   -0.2260 N.am   20  ILE20      -0.1963
     26  CA        -4.7520    5.3490   -0.9430 C.3    20  ILE20       0.1727
     27  CB        -3.5230    4.9310   -0.1080 C.3    20  ILE20       0.0290
     28  CG2       -2.1210    5.5060   -0.7390 C.3    20  ILE20       0.0023
     29  CG1       -3.5940    5.4760    1.3470 C.3    20  ILE20       0.0022
     30  CD1       -2.3570    5.1940    2.2260 C.3    20  ILE20       0.0001
     31  C         -4.7590    4.7050   -2.3650 C.2    20  ILE20       0.2617
     32  O         -4.2060    3.6200   -2.5900 O.2    20  ILE20      -0.2715
     33  N         -5.4060    5.3330   -3.3880 N.am   21  TRP21      -0.1938
     34  CA        -5.3950    4.7680   -4.7850 C.3    21  TRP21       0.2021
     35  CB        -6.6210    3.8650   -5.0310 C.3    21  TRP21       0.0612
     36  CG        -6.7890    3.3770   -6.4480 C.ar   21  TRP21       0.0007
     37  CD1       -7.1340    4.1960   -7.4760 C.ar   21  TRP21       0.0946
     38  NE1       -7.1740    3.4060   -8.6160 N.ar   21  TRP21      -0.2442
     39  CE2       -6.9360    2.0750   -8.3350 C.ar   21  TRP21       0.0810
     40  CZ2       -6.8300    1.0510   -9.2060 C.ar   21  TRP21       0.0191
     41  CH2       -6.3330   -0.2010   -8.7710 C.ar   21  TRP21       0.0015
     42  CZ3       -5.9560   -0.2520   -7.3640 C.ar   21  TRP21       0.0001
     43  CE3       -6.0150    0.8940   -6.5860 C.ar   21  TRP21       0.0012
     44  CD2       -6.6320    2.0560   -6.9830 C.ar   21  TRP21       0.0152
     45  C         -5.1960    5.8550   -5.8260 C.2    21  TRP21       0.3845
     46  O         -4.1840    5.6720   -6.5070 O.co2  21  TRP21      -0.2437
     47  OXT       -5.9640    6.8330   -6.0170 O.co2  21  TRP21      -0.2437
@<TRIPOS>BOND
     1    40    41   ar
     2    40    39   ar
     3    41    42   ar
     4    38    39   ar
     5    38    37   ar
     6    39    44   ar
     7    37    36   ar
     8    42    43   ar
     9    44    43   ar
    10    44    36   ar
    11    46    45   ar
    12    36    35    1
    13    47    45   ar
    14    45    34    1
    15    35    34    1
    16    34    33    1
    17     8     7    2
    18    33    31   am
    19    14    12   ar
    20    32    31    2
    21    16    15    2
    22     7     9   am
    23     7     2    1
    24    31    26    1
    25    10     9    1
    26    10    15    1
    27    10    11    1
    28    12    11    1
    29    12    13   ar
    30     2     1    1
    31     2     3    1
    32    15    17   am
    33     5     4    1
    34    26    25    1
    35    26    27    1
    36    24    23    2
    37    28    27    1
    38     4     3    1
    39     4     6    1
    40    17    18    1
    41    23    25   am
    42    23    18    1
    43    27    29    1
    44    18    19    1
    45    29    30    1
    46    19    21    1
    47    19    20    1
    48    22    21    1
