@<TRIPOS>MOLECULE
46174111
 44 47 0 0 0
SMALL
GASTEIGER

@<TRIPOS>ATOM
      1 CL         -6.9628    6.2771   -0.2937 Cl      1  LIG11      -0.0762
      2 S          -6.8570    2.6871   -1.6522 S.O2    1  LIG11       0.0758
      3 S          -4.2135    5.4619   -3.4999 S.2     1  LIG11      -0.0918
      4 O          -5.3877   -0.0122   -7.1147 O.3     1  LIG11      -0.4526
      5 O          -6.8809    0.0508   -9.0078 O.3     1  LIG11      -0.4526
      6 O          -7.8189    4.2857   -4.1811 O.2     1  LIG11      -0.2911
      7 O          -6.4279    2.2600   -0.3352 O.2     1  LIG11      -0.1499
      8 O          -6.9496    1.7394   -2.7392 O.2     1  LIG11      -0.1499
      9 O          -9.5405    3.5129    0.6106 O.2     1  LIG11      -0.3364
     10 N          -8.3414    3.4777   -1.5206 N.pl3   1  LIG11      -0.1821
     11 N          -9.5854    4.2605    1.7748 N.ar    1  LIG11      -0.0798
     12 C          -6.4662    3.5041   -6.7749 C.ar    1  LIG11      -0.0333
     13 C          -6.1888    4.6955   -5.8778 C.3     1  LIG11       0.0366
     14 C          -7.3339    3.5450   -7.9021 C.ar    1  LIG11      -0.0432
     15 C          -5.6159    3.7835   -2.1719 C.ar    1  LIG11       0.1261
     16 C          -5.6118    4.4686   -3.3769 C.ar    1  LIG11       0.0814
     17 C          -5.7769    2.3060   -6.4758 C.ar    1  LIG11      -0.0123
     18 C          -6.6256    4.4680   -4.4302 C.2     1  LIG11       0.1759
     19 C          -5.9768    1.2022   -7.2745 C.ar    1  LIG11       0.1665
     20 C          -6.8220    1.2392   -8.3505 C.ar    1  LIG11       0.1665
     21 C          -7.5095    2.3839   -8.6864 C.ar    1  LIG11      -0.0130
     22 C          -8.1338    4.7517   -8.3171 C.3     1  LIG11      -0.0393
     23 C          -4.4325    4.0233   -1.3999 C.ar    1  LIG11      -0.0273
     24 C          -5.9897   -0.7466   -8.2002 C.3     1  LIG11       0.2332
     25 C          -3.5890    4.9202   -2.0098 C.ar    1  LIG11      -0.0217
     26 C          -8.6001    4.0244   -0.2327 C.ar    1  LIG11       0.2554
     27 C          -8.0635    5.1547    0.3410 C.ar    1  LIG11       0.1262
     28 C          -8.6983    5.2490    1.6027 C.ar    1  LIG11       0.1009
     29 C          -8.5193    6.2810    2.6502 C.3     1  LIG11      -0.0176
     30 H          -9.0603    2.8149   -1.8146 H       1  LIG11       0.1768
     31 H          -5.1202    4.9101   -5.9650 H       1  LIG11       0.0394
     32 H          -6.6910    5.6078   -6.2050 H       1  LIG11       0.0394
     33 H          -5.0971    2.2311   -5.6324 H       1  LIG11       0.0658
     34 H          -8.1748    2.3805   -9.5446 H       1  LIG11       0.0658
     35 H          -7.8304    5.6755   -7.8255 H       1  LIG11       0.0278
     36 H          -9.1942    4.5842   -8.1023 H       1  LIG11       0.0278
     37 H          -8.0148    4.9236   -9.3932 H       1  LIG11       0.0278
     38 H          -4.2182    3.5639   -0.4403 H       1  LIG11       0.0643
     39 H          -6.5530   -1.5900   -7.7840 H       1  LIG11       0.1166
     40 H          -5.1923   -1.1388   -8.8417 H       1  LIG11       0.1166
     41 H          -2.6376    5.2860   -1.6466 H       1  LIG11       0.0694
     42 H          -8.9135    5.9466    3.6153 H       1  LIG11       0.0294
     43 H          -9.0423    7.2005    2.3681 H       1  LIG11       0.0294
     44 H          -7.4592    6.5167    2.7887 H       1  LIG11       0.0294
@<TRIPOS>BOND
     1     1    27    1
     2     2    10    1
     3     2    15    1
     4     2     8    2
     5     2     7    2
     6     3    16   ar
     7     3    25   ar
     8     4    24    1
     9     4    19    1
    10     5    20    1
    11     5    24    1
    12     6    18    2
    13     9    11   ar
    14     9    26   ar
    15    10    26    1
    16    11    28   ar
    17    12    17   ar
    18    12    14   ar
    19    13    18    1
    20    13    12    1
    21    14    21   ar
    22    14    22    1
    23    15    23   ar
    24    15    16   ar
    25    16    18    1
    26    17    19   ar
    27    19    20   ar
    28    20    21   ar
    29    23    25   ar
    30    26    27   ar
    31    27    28   ar
    32    28    29    1
    33    10    30    1
    34    13    31    1
    35    13    32    1
    36    17    33    1
    37    21    34    1
    38    22    35    1
    39    22    36    1
    40    22    37    1
    41    23    38    1
    42    24    39    1
    43    24    40    1
    44    25    41    1
    45    29    42    1
    46    29    43    1
    47    29    44    1
@<TRIPOS>MOLECULE
../1EDN/PCA2_17-21.pdb
 47 48 0 0 0
SMALL
GASTEIGER

@<TRIPOS>ATOM
      1  N         -4.4680    0.3970   -1.5420 N.3    17  LEU17      -0.1231
      2  CA        -5.5730   -0.5090   -1.8150 C.3    17  LEU17       0.1693
      3  CB        -5.9860   -1.2020   -0.4580 C.3    17  LEU17       0.0284
      4  CG        -7.1280   -2.2100   -0.5390 C.3    17  LEU17       0.0019
      5  CD1       -6.7120   -3.3620   -1.4700 C.3    17  LEU17       0.0001
      6  CD2       -7.4980   -2.5610    0.9130 C.3    17  LEU17       0.0001
      7  C         -6.7000    0.2280   -2.5610 C.2    17  LEU17       0.2592
      8  O         -7.1860   -0.2780   -3.5510 O.2    17  LEU17      -0.2718
      9  N         -7.2650    1.2690   -1.9650 N.am   18  ASP18      -0.1960
     10  CA        -8.5260    1.8930   -2.2590 C.3    18  ASP18       0.1840
     11  CB        -9.6810    1.0560   -1.6740 C.3    18  ASP18       0.1450
     12  CG       -11.0010    1.6360   -2.1090 C.2    18  ASP18       0.3671
     13  OD1      -11.5960    2.3310   -1.2790 O.co2  18  ASP18      -0.2456
     14  OD2      -11.5460    1.2700   -3.1630 O.co2  18  ASP18      -0.2456
     15  C         -8.5570    3.3770   -1.7380 C.2    18  ASP18       0.2622
     16  O         -8.6960    4.2620   -2.5680 O.2    18  ASP18      -0.2715
     17  N         -8.4180    3.5730   -0.4160 N.am   19  ILE19      -0.1963
     18  CA        -8.3980    4.9040    0.1930 C.3    19  ILE19       0.1727
     19  CB        -8.4260    4.8620    1.7600 C.3    19  ILE19       0.0290
     20  CG2       -7.7310    6.0060    2.5190 C.3    19  ILE19       0.0023
     21  CG1       -9.9240    4.5740    2.2500 C.3    19  ILE19       0.0022
     22  CD1      -10.9740    5.6950    2.0110 C.3    19  ILE19       0.0001
     23  C         -7.1570    5.7010   -0.3260 C.2    19  ILE19       0.2616
     24  O         -7.3050    6.7970   -0.9200 O.2    19  ILE19      -0.2715
     25  N         -5.9900    5.0720   -0.2260 N.am   20  ILE20      -0.1963
     26  CA        -4.7520    5.3490   -0.9430 C.3    20  ILE20       0.1727
     27  CB        -3.5230    4.9310   -0.1080 C.3    20  ILE20       0.0290
     28  CG2       -2.1210    5.5060   -0.7390 C.3    20  ILE20       0.0023
     29  CG1       -3.5940    5.4760    1.3470 C.3    20  ILE20       0.0022
     30  CD1       -2.3570    5.1940    2.2260 C.3    20  ILE20       0.0001
     31  C         -4.7590    4.7050   -2.3650 C.2    20  ILE20       0.2617
     32  O         -4.2060    3.6200   -2.5900 O.2    20  ILE20      -0.2715
     33  N         -5.4060    5.3330   -3.3880 N.am   21  TRP21      -0.1938
     34  CA        -5.3950    4.7680   -4.7850 C.3    21  TRP21       0.2021
     35  CB        -6.6210    3.8650   -5.0310 C.3    21  TRP21       0.0612
     36  CG        -6.7890    3.3770   -6.4480 C.ar   21  TRP21       0.0007
     37  CD1       -7.1340    4.1960   -7.4760 C.ar   21  TRP21       0.0946
     38  NE1       -7.1740    3.4060   -8.6160 N.ar   21  TRP21      -0.2442
     39  CE2       -6.9360    2.0750   -8.3350 C.ar   21  TRP21       0.0810
     40  CZ2       -6.8300    1.0510   -9.2060 C.ar   21  TRP21       0.0191
     41  CH2       -6.3330   -0.2010   -8.7710 C.ar   21  TRP21       0.0015
     42  CZ3       -5.9560   -0.2520   -7.3640 C.ar   21  TRP21       0.0001
     43  CE3       -6.0150    0.8940   -6.5860 C.ar   21  TRP21       0.0012
     44  CD2       -6.6320    2.0560   -6.9830 C.ar   21  TRP21       0.0152
     45  C         -5.1960    5.8550   -5.8260 C.2    21  TRP21       0.3845
     46  O         -4.1840    5.6720   -6.5070 O.co2  21  TRP21      -0.2437
     47  OXT       -5.9640    6.8330   -6.0170 O.co2  21  TRP21      -0.2437
@<TRIPOS>BOND
     1    40    41   ar
     2    40    39   ar
     3    41    42   ar
     4    38    39   ar
     5    38    37   ar
     6    39    44   ar
     7    37    36   ar
     8    42    43   ar
     9    44    43   ar
    10    44    36   ar
    11    46    45   ar
    12    36    35    1
    13    47    45   ar
    14    45    34    1
    15    35    34    1
    16    34    33    1
    17     8     7    2
    18    33    31   am
    19    14    12   ar
    20    32    31    2
    21    16    15    2
    22     7     9   am
    23     7     2    1
    24    31    26    1
    25    10     9    1
    26    10    15    1
    27    10    11    1
    28    12    11    1
    29    12    13   ar
    30     2     1    1
    31     2     3    1
    32    15    17   am
    33     5     4    1
    34    26    25    1
    35    26    27    1
    36    24    23    2
    37    28    27    1
    38     4     3    1
    39     4     6    1
    40    17    18    1
    41    23    25   am
    42    23    18    1
    43    27    29    1
    44    18    19    1
    45    29    30    1
    46    19    21    1
    47    19    20    1
    48    22    21    1
