@<TRIPOS>MOLECULE
23693553
 97 99 0 0 0
SMALL
GASTEIGER

@<TRIPOS>ATOM
      1 O          -5.7399    4.3954   -0.6163 O.2     1  LIG11      -0.2526
      2 O          -3.7243    5.9047   -3.0670 O.2     1  LIG11      -0.2731
      3 O          -6.3753    3.0383   -3.2876 O.2     1  LIG11      -0.2689
      4 O          -1.9687    0.9164   -3.1710 O.co2   1  LIG11      -0.5479
      5 OXT        -2.8733    2.4934   -4.5592 O.co2   1  LIG11      -0.5479
      6 O          -6.4015   -1.1210   -8.3341 O.3     1  LIG11      -0.4515
      7 O          -4.8108   -0.6998   -6.7136 O.2     1  LIG11      -0.2227
      8 N          -5.6016    4.5227    1.6782 N.am    1  LIG11      -0.2801
      9 N          -3.8909    5.3259    0.2555 N.am    1  LIG11      -0.2879
     10 N          -4.2427    3.7106   -2.6766 N.am    1  LIG11      -0.2273
     11 N          -3.9632    4.4312   -5.5159 N.4     1  LIG11       0.2276
     12 N          -6.3447    0.9117   -7.2769 N.ar    1  LIG11      -0.2526
     13 C          -4.9533    5.0944    2.8868 C.3     1  LIG11       0.0249
     14 C          -6.5312    3.3573    1.7969 C.3     1  LIG11       0.0249
     15 C          -5.5235    4.6307    4.2327 C.3     1  LIG11      -0.0344
     16 C          -6.9134    2.9219    3.2212 C.3     1  LIG11      -0.0344
     17 C          -5.8078    3.1464    4.2250 C.3     1  LIG11      -0.0497
     18 CA         -2.9865    5.0722   -0.8876 C.3     1  LIG11       0.1019
     19 C          -0.7208    6.2691   -0.0551 C.3     1  LIG11      -0.0356
     20 C          -1.9657    6.2477   -0.9919 C.3     1  LIG11      -0.0210
     21 C          -5.1173    4.7350    0.3810 C.2     1  LIG11       0.3033
     22 C          -5.0050    6.6312    2.8734 C.3     1  LIG11      -0.0464
     23 C          -7.8493    3.5283    1.0165 C.3     1  LIG11      -0.0464
     24 C          -3.6810    4.9314   -2.2987 C.2     1  LIG11       0.2429
     25 C           0.1707    5.0389   -0.2923 C.3     1  LIG11      -0.0600
     26 C          -1.0856    6.3476    1.4334 C.3     1  LIG11      -0.0600
     27 C           0.0977    7.5324   -0.4083 C.3     1  LIG11      -0.0600
     28 CA         -3.6375    2.3960   -2.2988 C.3     1  LIG11       0.0730
     29 C          -4.5753    1.3761   -1.6249 C.3     1  LIG11      -0.0286
     30 C          -5.3522    3.6793   -3.5318 C.2     1  LIG11       0.2708
     31 CA         -5.2739    4.5548   -4.8036 C.3     1  LIG11       0.0579
     32 C          -5.2328    0.3231   -2.5262 C.3     1  LIG11      -0.0513
     33 C          -6.4453    4.3428   -5.7718 C.3     1  LIG11       0.0261
     34 C          -2.7590    1.8454   -3.4626 C.2     1  LIG11       0.0626
     35 C          -6.5750    3.0463   -6.5175 C.ar    1  LIG11      -0.0158
     36 C          -6.0490   -0.7119   -1.7394 C.3     1  LIG11      -0.0558
     37 C          -7.6100    2.7738   -7.4673 C.ar    1  LIG11       0.0038
     38 C          -5.8303    1.8932   -6.4294 C.ar    1  LIG11       0.0202
     39 C          -7.4618    1.4566   -7.9220 C.ar    1  LIG11       0.0598
     40 C          -7.1533   -0.1172   -0.8775 C.3     1  LIG11      -0.0653
     41 C          -8.6836    3.5530   -7.9567 C.ar    1  LIG11      -0.0523
     42 C          -8.3752    0.9126   -8.8495 C.ar    1  LIG11      -0.0371
     43 C          -9.5831    3.0117   -8.8762 C.ar    1  LIG11      -0.0611
     44 C          -5.7728   -0.3763   -7.3950 C.2     1  LIG11       0.4196
     45 C          -9.4291    1.7053   -9.3143 C.ar    1  LIG11      -0.0598
     46 C          -5.8565   -2.4273   -8.5302 C.3     1  LIG11       0.0835
     47 H          -3.4008    5.4239    1.1211 H       1  LIG11       0.1510
     48 H1         -3.2856    5.0979   -5.1329 H       1  LIG11       0.2002
     49 H2         -3.5196    3.5010   -5.2606 H       1  LIG11       0.2002
     50 H3         -3.9915    4.4474   -6.5339 H       1  LIG11       0.2002
     51 H          -3.9069    4.7658    2.8691 H       1  LIG11       0.0498
     52 H          -5.9869    2.5138    1.3488 H       1  LIG11       0.0498
     53 H          -4.8139    4.8681    5.0346 H       1  LIG11       0.0283
     54 H          -6.4477    5.1768    4.4655 H       1  LIG11       0.0283
     55 H          -7.8055    3.4706    3.5536 H       1  LIG11       0.0283
     56 H          -7.1971    1.8618    3.2137 H       1  LIG11       0.0283
     57 H          -4.9128    2.5702    3.9653 H       1  LIG11       0.0266
     58 H          -6.1361    2.8216    5.2184 H       1  LIG11       0.0266
     59 HA         -2.4343    4.1700   -0.6423 H       1  LIG11       0.0595
     60 H          -1.5683    6.2669   -2.0169 H       1  LIG11       0.0293
     61 H          -2.5151    7.1927   -0.8705 H       1  LIG11       0.0293
     62 H          -6.0425    6.9833    2.8450 H       1  LIG11       0.0248
     63 H          -4.5290    7.0429    3.7700 H       1  LIG11       0.0248
     64 H          -4.4963    7.0675    2.0107 H       1  LIG11       0.0248
     65 H          -8.3146    4.4935    1.2404 H       1  LIG11       0.0248
     66 H          -7.7138    3.4599   -0.0653 H       1  LIG11       0.0248
     67 H          -8.5606    2.7343    1.2730 H       1  LIG11       0.0248
     68 H           0.4288    4.9351   -1.3520 H       1  LIG11       0.0235
     69 H           1.1082    5.1194    0.2703 H       1  LIG11       0.0235
     70 H          -0.3188    4.1138    0.0277 H       1  LIG11       0.0235
     71 H          -1.8244    7.1345    1.6204 H       1  LIG11       0.0235
     72 H          -1.4822    5.3981    1.8046 H       1  LIG11       0.0235
     73 H          -0.2034    6.5762    2.0432 H       1  LIG11       0.0235
     74 H          -0.4908    8.4425   -0.2444 H       1  LIG11       0.0235
     75 H           1.0028    7.6077    0.2051 H       1  LIG11       0.0235
     76 H           0.4114    7.5221   -1.4585 H       1  LIG11       0.0235
     77 HA         -2.8840    2.6040   -1.5393 H       1  LIG11       0.0567
     78 H          -3.9829    0.8297   -0.8779 H       1  LIG11       0.0287
     79 H          -5.3405    1.9134   -1.0574 H       1  LIG11       0.0287
     80 HA         -5.3610    5.6043   -4.5064 H       1  LIG11       0.0952
     81 H          -5.8828    0.7841   -3.2724 H       1  LIG11       0.0266
     82 H          -4.4648   -0.2209   -3.0864 H       1  LIG11       0.0266
     83 H          -7.3823    4.5042   -5.2213 H       1  LIG11       0.0374
     84 H          -6.4007    5.1433   -6.5248 H       1  LIG11       0.0374
     85 H          -6.5008   -1.4099   -2.4544 H       1  LIG11       0.0263
     86 H          -5.3782   -1.3022   -1.1042 H       1  LIG11       0.0263
     87 H          -4.9760    1.6304   -5.8159 H       1  LIG11       0.0818
     88 H          -7.7953    0.5523   -1.4581 H       1  LIG11       0.0230
     89 H          -7.7784   -0.9158   -0.4645 H       1  LIG11       0.0230
     90 H          -6.7422    0.4414   -0.0313 H       1  LIG11       0.0230
     91 H          -8.8263    4.5726   -7.6098 H       1  LIG11       0.0624
     92 H          -8.2960   -0.1095   -9.2055 H       1  LIG11       0.0638
     93 H         -10.4122    3.6129   -9.2404 H       1  LIG11       0.0618
     94 H         -10.1409    1.2862  -10.0221 H       1  LIG11       0.0618
     95 H          -6.0318   -2.7104   -9.5720 H       1  LIG11       0.0661
     96 H          -4.7784   -2.4700   -8.3460 H       1  LIG11       0.0661
     97 H          -6.3811   -3.1354   -7.8829 H       1  LIG11       0.0661
@<TRIPOS>BOND
     1     1    21    2
     2     2    24    2
     3     3    30    2
     4     4    34   ar
     5     5    34   ar
     6     6    44    1
     7     6    46    1
     8     7    44    2
     9     8    13    1
    10     8    14    1
    11     9    21   am
    12    10    24   am
    13    10    30   am
    14    12    39   ar
    15    12    38   ar
    16    12    44   am
    17    13    15    1
    18    13    22    1
    19    14    16    1
    20    14    23    1
    21    15    17    1
    22    16    17    1
    23    18     9    1
    24    18    24    1
    25    18    20    1
    26    19    20    1
    27    19    27    1
    28    19    26    1
    29    19    25    1
    30    21     8   am
    31    28    34    1
    32    28    29    1
    33    28    10    1
    34    29    32    1
    35    31    33    1
    36    31    11    1
    37    31    30    1
    38    32    36    1
    39    33    35    1
    40    35    38   ar
    41    35    37   ar
    42    36    40    1
    43    37    39   ar
    44    37    41   ar
    45    39    42   ar
    46    41    43   ar
    47    42    45   ar
    48    43    45   ar
    49     9    47    1
    50    11    48    1
    51    11    49    1
    52    11    50    1
    53    13    51    1
    54    14    52    1
    55    15    53    1
    56    15    54    1
    57    16    55    1
    58    16    56    1
    59    17    57    1
    60    17    58    1
    61    18    59    1
    62    20    60    1
    63    20    61    1
    64    22    62    1
    65    22    63    1
    66    22    64    1
    67    23    65    1
    68    23    66    1
    69    23    67    1
    70    25    68    1
    71    25    69    1
    72    25    70    1
    73    26    71    1
    74    26    72    1
    75    26    73    1
    76    27    74    1
    77    27    75    1
    78    27    76    1
    79    28    77    1
    80    29    78    1
    81    29    79    1
    82    31    80    1
    83    32    81    1
    84    32    82    1
    85    33    83    1
    86    33    84    1
    87    36    85    1
    88    36    86    1
    89    38    87    1
    90    40    88    1
    91    40    89    1
    92    40    90    1
    93    41    91    1
    94    42    92    1
    95    43    93    1
    96    45    94    1
    97    46    95    1
    98    46    96    1
    99    46    97    1
@<TRIPOS>MOLECULE
../1EDN/PCA3_17-21.pdb
 47 48 0 0 0
SMALL
GASTEIGER

@<TRIPOS>ATOM
      1  N         -4.2370    0.0490   -1.5930 N.3    17  LEU17      -0.1231
      2  CA        -5.5250   -0.5610   -1.9200 C.3    17  LEU17       0.1693
      3  CB        -5.7360   -1.8160   -1.1010 C.3    17  LEU17       0.0284
      4  CG        -6.9950   -2.5690   -1.5730 C.3    17  LEU17       0.0019
      5  CD1       -6.7530   -3.1800   -3.0080 C.3    17  LEU17       0.0001
      6  CD2       -7.2580   -3.7400   -0.6960 C.3    17  LEU17       0.0001
      7  C         -6.6810    0.4320   -1.9250 C.2    17  LEU17       0.2592
      8  O         -7.3270    0.6200   -2.9560 O.2    17  LEU17      -0.2718
      9  N         -6.9500    1.1080   -0.7900 N.am   18  ASP18      -0.1960
     10  CA        -8.0880    2.0070   -0.5710 C.3    18  ASP18       0.1840
     11  CB        -9.1090    1.3410    0.3760 C.3    18  ASP18       0.1450
     12  CG       -10.1470    2.2990    0.9520 C.2    18  ASP18       0.3671
     13  OD1      -11.0720    2.5310    0.1500 O.co2  18  ASP18      -0.2456
     14  OD2      -10.1960    2.6850    2.1610 O.co2  18  ASP18      -0.2456
     15  C         -7.6280    3.3500    0.0060 C.2    18  ASP18       0.2622
     16  O         -7.9950    4.4650   -0.3580 O.2    18  ASP18      -0.2715
     17  N         -6.8140    3.2050    1.0390 N.am   19  ILE19      -0.1963
     18  CA        -6.1800    4.3790    1.8160 C.3    19  ILE19       0.1727
     19  CB        -5.3140    3.8890    3.0670 C.3    19  ILE19       0.0290
     20  CG2       -4.6600    5.0630    3.8540 C.3    19  ILE19       0.0023
     21  CG1       -6.1440    2.9790    3.9890 C.3    19  ILE19       0.0022
     22  CD1       -5.5170    2.2940    5.2130 C.3    19  ILE19       0.0001
     23  C         -5.2670    5.2520    0.8640 C.2    19  ILE19       0.2616
     24  O         -5.3920    6.4650    0.9090 O.2    19  ILE19      -0.2715
     25  N         -4.4890    4.6060    0.0020 N.am   20  ILE20      -0.1963
     26  CA        -3.9690    5.2910   -1.1850 C.3    20  ILE20       0.1727
     27  CB        -2.4460    5.7340   -1.0120 C.3    20  ILE20       0.0290
     28  CG2       -2.3030    7.0110   -0.1100 C.3    20  ILE20       0.0023
     29  CG1       -1.4300    4.6170   -0.6100 C.3    20  ILE20       0.0022
     30  CD1        0.0800    4.9990   -0.7110 C.3    20  ILE20       0.0001
     31  C         -4.1660    4.3690   -2.4130 C.2    20  ILE20       0.2617
     32  O         -3.9200    3.1710   -2.5010 O.2    20  ILE20      -0.2715
     33  N         -4.6410    5.0460   -3.5090 N.am   21  TRP21      -0.1938
     34  CA        -4.8980    4.4430   -4.8120 C.3    21  TRP21       0.2021
     35  CB        -6.2680    3.7450   -4.8170 C.3    21  TRP21       0.0612
     36  CG        -6.5090    2.9660   -6.0890 C.ar   21  TRP21       0.0007
     37  CD1       -7.0550    3.4090   -7.2190 C.ar   21  TRP21       0.0946
     38  NE1       -7.1560    2.4190   -8.1260 N.ar   21  TRP21      -0.2442
     39  CE2       -6.6880    1.2600   -7.6470 C.ar   21  TRP21       0.0810
     40  CZ2       -6.5320   -0.1050   -8.0600 C.ar   21  TRP21       0.0191
     41  CH2       -5.9630   -1.0770   -7.2340 C.ar   21  TRP21       0.0015
     42  CZ3       -5.4330   -0.7150   -5.9030 C.ar   21  TRP21       0.0001
     43  CE3       -5.5290    0.6400   -5.5430 C.ar   21  TRP21       0.0012
     44  CD2       -6.2440    1.5830   -6.3190 C.ar   21  TRP21       0.0152
     45  C         -4.7460    5.5030   -5.9410 C.2    21  TRP21       0.3845
     46  O         -5.6740    6.3580   -6.0770 O.co2  21  TRP21      -0.2437
     47  OXT       -3.7150    5.4030   -6.6310 O.co2  21  TRP21      -0.2437
@<TRIPOS>BOND
     1    38    39   ar
     2    38    37   ar
     3    40    39   ar
     4    40    41   ar
     5    39    44   ar
     6    41    42   ar
     7    37    36   ar
     8    47    45   ar
     9    44    36   ar
    10    44    43   ar
    11    36    35    1
    12    46    45   ar
    13    45    34    1
    14    42    43   ar
    15    35    34    1
    16    34    33    1
    17    33    31   am
    18     5     4    1
    19     8     7    2
    20    32    31    2
    21    31    26    1
    22     7     2    1
    23     7     9   am
    24     2     1    1
    25     2     3    1
    26     4     3    1
    27     4     6    1
    28    26    27    1
    29    26    25    1
    30    27    29    1
    31    27    28    1
    32     9    10    1
    33    30    29    1
    34    10    15    1
    35    10    11    1
    36    16    15    2
    37    25    23   am
    38    15    17   am
    39    13    12   ar
    40    11    12    1
    41    23    24    2
    42    23    18    1
    43    12    14   ar
    44    17    18    1
    45    18    19    1
    46    19    20    1
    47    19    21    1
    48    21    22    1
