@<TRIPOS>MOLECULE
9910224
 46 49 0 0 0
SMALL
GASTEIGER

@<TRIPOS>ATOM
      1 S          -5.4938    5.1871   -0.1852 S.O2    1  LIG11       0.0756
      2 O          -5.6714    6.0189    0.9916 O.2     1  LIG11      -0.1499
      3 O          -6.3555    5.3539   -1.3300 O.2     1  LIG11      -0.1499
      4 O          -6.2848    3.7183    3.0308 O.3     1  LIG11      -0.4773
      5 O          -6.2537    3.6885   -7.6447 O.2     1  LIG11      -0.4229
      6 N          -5.4728    3.5812    0.3653 N.pl3   1  LIG11      -0.1951
      7 N          -2.0169    5.1779   -2.2719 N.ar    1  LIG11      -0.2530
      8 N          -7.5430    2.6401   -0.2047 N.ar    1  LIG11      -0.2325
      9 N          -8.4142    2.8148    2.5069 N.ar    1  LIG11      -0.2137
     10 N          -7.0967    1.9195   -6.5665 N.ar    1  LIG11      -0.1076
     11 N          -7.5822    1.9033   -7.8597 N.ar    1  LIG11      -0.1156
     12 C          -3.8039    5.3537   -0.6845 C.ar    1  LIG11       0.1344
     13 C          -3.3364    5.0062   -1.9491 C.ar    1  LIG11       0.0975
     14 C          -4.1136    4.4678   -3.0799 C.ar    1  LIG11       0.0023
     15 C          -2.9059    5.8993    0.2503 C.ar    1  LIG11      -0.0315
     16 C          -4.8580    3.2821   -3.0052 C.ar    1  LIG11      -0.0518
     17 C          -4.0747    5.1292   -4.3209 C.ar    1  LIG11      -0.0518
     18 C          -6.7680    3.1407    0.7724 C.ar    1  LIG11       0.2006
     19 C          -5.5553    3.4895   -5.3361 C.ar    1  LIG11       0.0385
     20 C          -5.5803    2.8096   -4.1112 C.ar    1  LIG11      -0.0488
     21 C          -4.7814    4.6516   -5.4306 C.ar    1  LIG11      -0.0488
     22 C          -1.5693    6.0672   -0.0853 C.ar    1  LIG11      -0.0417
     23 C          -1.1738    5.6906   -1.3505 C.ar    1  LIG11       0.0284
     24 C          -7.1961    3.2423    2.1037 C.ar    1  LIG11       0.2574
     25 C          -6.3196    2.9816   -6.4679 C.ar    1  LIG11       0.2480
     26 C          -9.2042    2.3074    1.5261 C.ar    1  LIG11       0.0602
     27 C          -8.7693    2.2302    0.2013 C.ar    1  LIG11       0.0510
     28 C         -10.5590    1.8028    1.9133 C.3     1  LIG11      -0.0208
     29 C          -6.8803    3.9862    4.2964 C.3     1  LIG11       0.0805
     30 C          -7.0652    2.9526   -8.4508 C.ar    1  LIG11       0.2047
     31 H          -4.8755    3.5641    1.1950 H       1  LIG11       0.1754
     32 H          -3.2420    6.2037    1.2398 H       1  LIG11       0.0638
     33 H          -4.9003    2.7056   -2.0845 H       1  LIG11       0.0624
     34 H          -3.4768    6.0337   -4.4294 H       1  LIG11       0.0624
     35 H          -6.1708    1.9007   -4.0010 H       1  LIG11       0.0625
     36 H          -4.7169    5.2043   -6.3649 H       1  LIG11       0.0625
     37 H          -0.8596    6.4860    0.6192 H       1  LIG11       0.0633
     38 H          -0.1423    5.7966   -1.6743 H       1  LIG11       0.0830
     39 H          -9.4041    1.8246   -0.5809 H       1  LIG11       0.0848
     40 H         -10.7488    1.9770    2.9775 H       1  LIG11       0.0293
     41 H         -11.3362    2.3175    1.3402 H       1  LIG11       0.0293
     42 H         -10.6270    0.7263    1.7279 H       1  LIG11       0.0293
     43 H          -6.1165    4.4447    4.9321 H       1  LIG11       0.0660
     44 H          -7.7092    4.6972    4.2067 H       1  LIG11       0.0660
     45 H          -7.2055    3.0600    4.7824 H       1  LIG11       0.0660
     46 H          -7.1992    3.2941   -9.4658 H       1  LIG11       0.1272
@<TRIPOS>BOND
     1     1     2    2
     2     1     3    2
     3     1     6    1
     4     1    12    1
     5     4    24    1
     6     4    29    1
     7     5    25   ar
     8     5    30   ar
     9     6    18    1
    10     7    13   ar
    11     7    23   ar
    12     8    18   ar
    13     8    27   ar
    14     9    24   ar
    15     9    26   ar
    16    10    11   ar
    17    10    25   ar
    18    11    30   ar
    19    12    13   ar
    20    12    15   ar
    21    13    14    1
    22    14    16   ar
    23    14    17   ar
    24    15    22   ar
    25    16    20   ar
    26    17    21   ar
    27    18    24   ar
    28    19    20   ar
    29    19    21   ar
    30    19    25    1
    31    22    23   ar
    32    26    27   ar
    33    26    28    1
    34     6    31    1
    35    15    32    1
    36    16    33    1
    37    17    34    1
    38    20    35    1
    39    21    36    1
    40    22    37    1
    41    23    38    1
    42    27    39    1
    43    28    40    1
    44    28    41    1
    45    28    42    1
    46    29    43    1
    47    29    44    1
    48    29    45    1
    49    30    46    1
@<TRIPOS>MOLECULE
../1EDN/PCA3_17-21.pdb
 47 48 0 0 0
SMALL
GASTEIGER

@<TRIPOS>ATOM
      1  N         -4.2370    0.0490   -1.5930 N.3    17  LEU17      -0.1231
      2  CA        -5.5250   -0.5610   -1.9200 C.3    17  LEU17       0.1693
      3  CB        -5.7360   -1.8160   -1.1010 C.3    17  LEU17       0.0284
      4  CG        -6.9950   -2.5690   -1.5730 C.3    17  LEU17       0.0019
      5  CD1       -6.7530   -3.1800   -3.0080 C.3    17  LEU17       0.0001
      6  CD2       -7.2580   -3.7400   -0.6960 C.3    17  LEU17       0.0001
      7  C         -6.6810    0.4320   -1.9250 C.2    17  LEU17       0.2592
      8  O         -7.3270    0.6200   -2.9560 O.2    17  LEU17      -0.2718
      9  N         -6.9500    1.1080   -0.7900 N.am   18  ASP18      -0.1960
     10  CA        -8.0880    2.0070   -0.5710 C.3    18  ASP18       0.1840
     11  CB        -9.1090    1.3410    0.3760 C.3    18  ASP18       0.1450
     12  CG       -10.1470    2.2990    0.9520 C.2    18  ASP18       0.3671
     13  OD1      -11.0720    2.5310    0.1500 O.co2  18  ASP18      -0.2456
     14  OD2      -10.1960    2.6850    2.1610 O.co2  18  ASP18      -0.2456
     15  C         -7.6280    3.3500    0.0060 C.2    18  ASP18       0.2622
     16  O         -7.9950    4.4650   -0.3580 O.2    18  ASP18      -0.2715
     17  N         -6.8140    3.2050    1.0390 N.am   19  ILE19      -0.1963
     18  CA        -6.1800    4.3790    1.8160 C.3    19  ILE19       0.1727
     19  CB        -5.3140    3.8890    3.0670 C.3    19  ILE19       0.0290
     20  CG2       -4.6600    5.0630    3.8540 C.3    19  ILE19       0.0023
     21  CG1       -6.1440    2.9790    3.9890 C.3    19  ILE19       0.0022
     22  CD1       -5.5170    2.2940    5.2130 C.3    19  ILE19       0.0001
     23  C         -5.2670    5.2520    0.8640 C.2    19  ILE19       0.2616
     24  O         -5.3920    6.4650    0.9090 O.2    19  ILE19      -0.2715
     25  N         -4.4890    4.6060    0.0020 N.am   20  ILE20      -0.1963
     26  CA        -3.9690    5.2910   -1.1850 C.3    20  ILE20       0.1727
     27  CB        -2.4460    5.7340   -1.0120 C.3    20  ILE20       0.0290
     28  CG2       -2.3030    7.0110   -0.1100 C.3    20  ILE20       0.0023
     29  CG1       -1.4300    4.6170   -0.6100 C.3    20  ILE20       0.0022
     30  CD1        0.0800    4.9990   -0.7110 C.3    20  ILE20       0.0001
     31  C         -4.1660    4.3690   -2.4130 C.2    20  ILE20       0.2617
     32  O         -3.9200    3.1710   -2.5010 O.2    20  ILE20      -0.2715
     33  N         -4.6410    5.0460   -3.5090 N.am   21  TRP21      -0.1938
     34  CA        -4.8980    4.4430   -4.8120 C.3    21  TRP21       0.2021
     35  CB        -6.2680    3.7450   -4.8170 C.3    21  TRP21       0.0612
     36  CG        -6.5090    2.9660   -6.0890 C.ar   21  TRP21       0.0007
     37  CD1       -7.0550    3.4090   -7.2190 C.ar   21  TRP21       0.0946
     38  NE1       -7.1560    2.4190   -8.1260 N.ar   21  TRP21      -0.2442
     39  CE2       -6.6880    1.2600   -7.6470 C.ar   21  TRP21       0.0810
     40  CZ2       -6.5320   -0.1050   -8.0600 C.ar   21  TRP21       0.0191
     41  CH2       -5.9630   -1.0770   -7.2340 C.ar   21  TRP21       0.0015
     42  CZ3       -5.4330   -0.7150   -5.9030 C.ar   21  TRP21       0.0001
     43  CE3       -5.5290    0.6400   -5.5430 C.ar   21  TRP21       0.0012
     44  CD2       -6.2440    1.5830   -6.3190 C.ar   21  TRP21       0.0152
     45  C         -4.7460    5.5030   -5.9410 C.2    21  TRP21       0.3845
     46  O         -5.6740    6.3580   -6.0770 O.co2  21  TRP21      -0.2437
     47  OXT       -3.7150    5.4030   -6.6310 O.co2  21  TRP21      -0.2437
@<TRIPOS>BOND
     1    38    39   ar
     2    38    37   ar
     3    40    39   ar
     4    40    41   ar
     5    39    44   ar
     6    41    42   ar
     7    37    36   ar
     8    47    45   ar
     9    44    36   ar
    10    44    43   ar
    11    36    35    1
    12    46    45   ar
    13    45    34    1
    14    42    43   ar
    15    35    34    1
    16    34    33    1
    17    33    31   am
    18     5     4    1
    19     8     7    2
    20    32    31    2
    21    31    26    1
    22     7     2    1
    23     7     9   am
    24     2     1    1
    25     2     3    1
    26     4     3    1
    27     4     6    1
    28    26    27    1
    29    26    25    1
    30    27    29    1
    31    27    28    1
    32     9    10    1
    33    30    29    1
    34    10    15    1
    35    10    11    1
    36    16    15    2
    37    25    23   am
    38    15    17   am
    39    13    12   ar
    40    11    12    1
    41    23    24    2
    42    23    18    1
    43    12    14   ar
    44    17    18    1
    45    18    19    1
    46    19    20    1
    47    19    21    1
    48    21    22    1
