@<TRIPOS>MOLECULE
HTS1204-03362316-01
 87 90 0 0 0
SMALL
USER_CHARGES

@<TRIPOS>ATOM
      1 C1         -4.3098    4.0405   -4.8914 C.ar    1  UNK11      -0.0199
      2 N1         -5.7623    5.4276   -5.8705 N.ar    1  UNK11      -0.3494
      3 C2         -4.8911    5.1590    2.4685 C.2     1  UNK11       0.3028
      4 C3         -4.6584    5.3678   -5.0660 C.ar    1  UNK11       0.0086
      5 C4         -4.1998    1.5881   -2.8153 C.2     1  UNK11       0.2342
      6 C5         -5.2317    3.2717   -5.6786 C.ar    1  UNK11       0.0031
      7 C6         -4.2913    4.1718   -0.5779 C.2     1  UNK11       0.2340
      8 C7         -6.1505    4.1614   -6.2457 C.ar    1  UNK11       0.0491
      9 N2         -5.6429    4.6136    1.4589 N.am    1  UNK11      -0.2879
     10 N3         -5.2001    4.6594    3.7315 N.am    1  UNK11      -0.2856
     11 N4         -4.4322    3.9200   -1.9279 N.am    1  UNK11      -0.3022
     12 N5         -5.4541    1.4767   -2.2421 N.am    1  UNK11      -0.3054
     13 C8         -3.5588    2.9867   -2.6577 C.3     1  UNK11       0.1034
     14 C9         -5.4768    4.9578    0.0407 C.3     1  UNK11       0.1011
     15 C10        -6.1960    0.1961   -2.2704 C.3     1  UNK11       0.0680
     16 C11        -3.1644    3.5366   -4.0461 C.3     1  UNK11       0.0013
     17 C12        -5.8852   -0.7625   -1.0849 C.2     1  UNK11       0.0623
     18 C13        -7.7152    0.4209   -2.3716 C.3     1  UNK11       0.0133
     19 O1         -4.0391    6.0256    2.2986 O.2     1  UNK11      -0.2526
     20 O2         -3.3187    3.7902    0.0651 O.2     1  UNK11      -0.2738
     21 O3         -3.6457    0.6906   -3.4495 O.2     1  UNK11      -0.2738
     22 N6         -9.8126    1.3352   -1.5661 N.ar    1  UNK11      -0.2598
     23 O4         -5.2449   -0.2263   -0.1281 O.co2   1  UNK11      -0.5479
     24 C14        -5.4146    6.4726   -0.2285 C.3     1  UNK11      -0.0236
     25 C15        -8.4984    1.1162   -1.2748 C.ar    1  UNK11       0.0434
     26 O5         -6.3478   -1.9324   -1.1874 O.co2   1  UNK11      -0.5479
     27 C16        -6.4201    6.6472   -6.2803 C.3     1  UNK11       0.0119
     28 C17        -4.2650    4.9733    4.8116 C.3     1  UNK11       0.0161
     29 C18        -6.4411    3.9607    4.0598 C.3     1  UNK11       0.0161
     30 C19        -7.2263    3.7258   -7.0384 C.ar    1  UNK11      -0.0376
     31 C20        -5.3830    1.8970   -5.9572 C.ar    1  UNK11      -0.0523
     32 C21        -5.6806    6.9216   -1.6798 C.3     1  UNK11      -0.0446
     33 C22       -10.5966    1.8882   -0.6151 C.ar    1  UNK11       0.0279
     34 C23        -7.9737    1.4916   -0.0418 C.ar    1  UNK11      -0.0403
     35 C24        -5.5157    8.4413   -1.7884 C.3     1  UNK11      -0.0626
     36 C25        -7.0668    6.5227   -2.1862 C.3     1  UNK11      -0.0626
     37 C26        -4.5412    4.3031    6.1595 C.3     1  UNK11      -0.0371
     38 C27        -6.2431    2.4643    4.2852 C.3     1  UNK11      -0.0371
     39 C28        -6.4547    1.4503   -6.7368 C.ar    1  UNK11      -0.0611
     40 C29        -7.3674    2.3545   -7.2645 C.ar    1  UNK11      -0.0598
     41 C30       -10.1429    2.2755    0.6301 C.ar    1  UNK11      -0.0436
     42 C31        -8.8035    2.0770    0.9149 C.ar    1  UNK11      -0.0586
     43 C32        -4.4942    2.7726    6.1666 C.3     1  UNK11      -0.0516
     44 C33        -4.8947    2.0597    4.8774 C.3     1  UNK11      -0.0516
     45 H          -4.2048    6.2673   -4.6701 H       1  UNK11       0.0812
     46 H          -5.7806    3.6237    1.6115 H       1  UNK11       0.1510
     47 H          -5.3404    4.0519   -2.3577 H       1  UNK11       0.1495
     48 H          -5.4593    1.8852   -1.3159 H       1  UNK11       0.1494
     49 H          -2.6452    2.8302   -2.0714 H       1  UNK11       0.0598
     50 H          -6.3895    4.5498   -0.4082 H       1  UNK11       0.0595
     51 H          -5.8829   -0.3321   -3.1817 H       1  UNK11       0.0564
     52 H          -2.6077    2.7824   -4.6161 H       1  UNK11       0.0337
     53 H          -2.4684    4.3732   -3.8928 H       1  UNK11       0.0337
     54 H          -8.2021   -0.5509   -2.5306 H       1  UNK11       0.0350
     55 H          -7.8960    1.0022   -3.2876 H       1  UNK11       0.0350
     56 H          -4.4214    6.8449    0.0512 H       1  UNK11       0.0290
     57 H          -6.1342    6.9795    0.4288 H       1  UNK11       0.0290
     58 H          -5.8878    7.5084   -5.8690 H       1  UNK11       0.0456
     59 H          -7.4458    6.6308   -5.9037 H       1  UNK11       0.0456
     60 H          -6.4102    6.6955   -7.3726 H       1  UNK11       0.0456
     61 H          -4.2879    6.0615    4.9487 H       1  UNK11       0.0465
     62 H          -3.2539    4.7195    4.4688 H       1  UNK11       0.0465
     63 H          -7.1881    4.1116    3.2723 H       1  UNK11       0.0465
     64 H          -6.8807    4.4358    4.9435 H       1  UNK11       0.0465
     65 H          -7.9397    4.4255   -7.4596 H       1  UNK11       0.0638
     66 H          -4.6817    1.1681   -5.5625 H       1  UNK11       0.0624
     67 H          -4.9261    6.4736   -2.3325 H       1  UNK11       0.0296
     68 H         -11.6396    2.0052   -0.8909 H       1  UNK11       0.0829
     69 H          -6.9404    1.3130    0.2238 H       1  UNK11       0.0635
     70 H          -6.2545    8.9669   -1.1740 H       1  UNK11       0.0232
     71 H          -5.6393    8.7718   -2.8254 H       1  UNK11       0.0232
     72 H          -4.5179    8.7500   -1.4591 H       1  UNK11       0.0232
     73 H          -7.8536    6.8957   -1.5224 H       1  UNK11       0.0232
     74 H          -7.1733    5.4375   -2.2650 H       1  UNK11       0.0232
     75 H          -7.2467    6.9344   -3.1851 H       1  UNK11       0.0232
     76 H          -5.5112    4.6344    6.5485 H       1  UNK11       0.0280
     77 H          -3.8067    4.6700    6.8880 H       1  UNK11       0.0280
     78 H          -6.3446    1.9481    3.3223 H       1  UNK11       0.0280
     79 H          -7.0583    2.0899    4.9162 H       1  UNK11       0.0280
     80 H          -6.5719    0.3843   -6.9158 H       1  UNK11       0.0618
     81 H          -8.2003    1.9884   -7.8589 H       1  UNK11       0.0618
     82 H         -10.8151    2.7036    1.3629 H       1  UNK11       0.0633
     83 H          -8.3990    2.3449    1.8853 H       1  UNK11       0.0619
     84 H          -5.1221    2.4108    6.9907 H       1  UNK11       0.0266
     85 H          -3.4714    2.4594    6.4130 H       1  UNK11       0.0266
     86 H          -4.1104    2.2101    4.1247 H       1  UNK11       0.0266
     87 H          -4.9112    0.9789    5.0685 H       1  UNK11       0.0266
@<TRIPOS>BOND
     1     2     4   ar
     2     3     9   am
     3     1     4   ar
     4     5    13    1
     5     1     6   ar
     6     7    11   am
     7     6     8   ar
     8     9    14    1
     9     3    10   am
    10    11    13    1
    11     5    12   am
    12    13    16    1
    13     7    14    1
    14    12    15    1
    15     1    16    1
    16    15    17    1
    17    15    18    1
    18     3    19    2
    19     7    20    2
    20     5    21    2
    21    22    25   ar
    22    17    23   ar
    23    14    24    1
    24    18    25    1
    25    17    26   ar
    26     2    27    1
    27    10    28    1
    28    10    29    1
    29     8    30   ar
    30     6    31   ar
    31    24    32    1
    32    22    33   ar
    33    25    34   ar
    34    32    35    1
    35    32    36    1
    36    28    37    1
    37    29    38    1
    38    31    39   ar
    39    39    40   ar
    40    41    42   ar
    41    34    42   ar
    42    37    43    1
    43    38    44    1
    44     2     8   ar
    45    30    40   ar
    46    33    41   ar
    47    43    44    1
    48     4    45    1
    49     9    46    1
    50    11    47    1
    51    12    48    1
    52    13    49    1
    53    14    50    1
    54    15    51    1
    55    16    52    1
    56    16    53    1
    57    18    54    1
    58    18    55    1
    59    24    56    1
    60    24    57    1
    61    27    58    1
    62    27    59    1
    63    27    60    1
    64    28    61    1
    65    28    62    1
    66    29    63    1
    67    29    64    1
    68    30    65    1
    69    31    66    1
    70    32    67    1
    71    33    68    1
    72    34    69    1
    73    35    70    1
    74    35    71    1
    75    35    72    1
    76    36    73    1
    77    36    74    1
    78    36    75    1
    79    37    76    1
    80    37    77    1
    81    38    78    1
    82    38    79    1
    83    39    80    1
    84    40    81    1
    85    41    82    1
    86    42    83    1
    87    43    84    1
    88    43    85    1
    89    44    86    1
    90    44    87    1
@<TRIPOS>MOLECULE
../1EDN/PCA3_17-21.pdb
 47 48 0 0 0
SMALL
GASTEIGER

@<TRIPOS>ATOM
      1  N         -4.2370    0.0490   -1.5930 N.3    17  LEU17      -0.1231
      2  CA        -5.5250   -0.5610   -1.9200 C.3    17  LEU17       0.1693
      3  CB        -5.7360   -1.8160   -1.1010 C.3    17  LEU17       0.0284
      4  CG        -6.9950   -2.5690   -1.5730 C.3    17  LEU17       0.0019
      5  CD1       -6.7530   -3.1800   -3.0080 C.3    17  LEU17       0.0001
      6  CD2       -7.2580   -3.7400   -0.6960 C.3    17  LEU17       0.0001
      7  C         -6.6810    0.4320   -1.9250 C.2    17  LEU17       0.2592
      8  O         -7.3270    0.6200   -2.9560 O.2    17  LEU17      -0.2718
      9  N         -6.9500    1.1080   -0.7900 N.am   18  ASP18      -0.1960
     10  CA        -8.0880    2.0070   -0.5710 C.3    18  ASP18       0.1840
     11  CB        -9.1090    1.3410    0.3760 C.3    18  ASP18       0.1450
     12  CG       -10.1470    2.2990    0.9520 C.2    18  ASP18       0.3671
     13  OD1      -11.0720    2.5310    0.1500 O.co2  18  ASP18      -0.2456
     14  OD2      -10.1960    2.6850    2.1610 O.co2  18  ASP18      -0.2456
     15  C         -7.6280    3.3500    0.0060 C.2    18  ASP18       0.2622
     16  O         -7.9950    4.4650   -0.3580 O.2    18  ASP18      -0.2715
     17  N         -6.8140    3.2050    1.0390 N.am   19  ILE19      -0.1963
     18  CA        -6.1800    4.3790    1.8160 C.3    19  ILE19       0.1727
     19  CB        -5.3140    3.8890    3.0670 C.3    19  ILE19       0.0290
     20  CG2       -4.6600    5.0630    3.8540 C.3    19  ILE19       0.0023
     21  CG1       -6.1440    2.9790    3.9890 C.3    19  ILE19       0.0022
     22  CD1       -5.5170    2.2940    5.2130 C.3    19  ILE19       0.0001
     23  C         -5.2670    5.2520    0.8640 C.2    19  ILE19       0.2616
     24  O         -5.3920    6.4650    0.9090 O.2    19  ILE19      -0.2715
     25  N         -4.4890    4.6060    0.0020 N.am   20  ILE20      -0.1963
     26  CA        -3.9690    5.2910   -1.1850 C.3    20  ILE20       0.1727
     27  CB        -2.4460    5.7340   -1.0120 C.3    20  ILE20       0.0290
     28  CG2       -2.3030    7.0110   -0.1100 C.3    20  ILE20       0.0023
     29  CG1       -1.4300    4.6170   -0.6100 C.3    20  ILE20       0.0022
     30  CD1        0.0800    4.9990   -0.7110 C.3    20  ILE20       0.0001
     31  C         -4.1660    4.3690   -2.4130 C.2    20  ILE20       0.2617
     32  O         -3.9200    3.1710   -2.5010 O.2    20  ILE20      -0.2715
     33  N         -4.6410    5.0460   -3.5090 N.am   21  TRP21      -0.1938
     34  CA        -4.8980    4.4430   -4.8120 C.3    21  TRP21       0.2021
     35  CB        -6.2680    3.7450   -4.8170 C.3    21  TRP21       0.0612
     36  CG        -6.5090    2.9660   -6.0890 C.ar   21  TRP21       0.0007
     37  CD1       -7.0550    3.4090   -7.2190 C.ar   21  TRP21       0.0946
     38  NE1       -7.1560    2.4190   -8.1260 N.ar   21  TRP21      -0.2442
     39  CE2       -6.6880    1.2600   -7.6470 C.ar   21  TRP21       0.0810
     40  CZ2       -6.5320   -0.1050   -8.0600 C.ar   21  TRP21       0.0191
     41  CH2       -5.9630   -1.0770   -7.2340 C.ar   21  TRP21       0.0015
     42  CZ3       -5.4330   -0.7150   -5.9030 C.ar   21  TRP21       0.0001
     43  CE3       -5.5290    0.6400   -5.5430 C.ar   21  TRP21       0.0012
     44  CD2       -6.2440    1.5830   -6.3190 C.ar   21  TRP21       0.0152
     45  C         -4.7460    5.5030   -5.9410 C.2    21  TRP21       0.3845
     46  O         -5.6740    6.3580   -6.0770 O.co2  21  TRP21      -0.2437
     47  OXT       -3.7150    5.4030   -6.6310 O.co2  21  TRP21      -0.2437
@<TRIPOS>BOND
     1    38    39   ar
     2    38    37   ar
     3    40    39   ar
     4    40    41   ar
     5    39    44   ar
     6    41    42   ar
     7    37    36   ar
     8    47    45   ar
     9    44    36   ar
    10    44    43   ar
    11    36    35    1
    12    46    45   ar
    13    45    34    1
    14    42    43   ar
    15    35    34    1
    16    34    33    1
    17    33    31   am
    18     5     4    1
    19     8     7    2
    20    32    31    2
    21    31    26    1
    22     7     2    1
    23     7     9   am
    24     2     1    1
    25     2     3    1
    26     4     3    1
    27     4     6    1
    28    26    27    1
    29    26    25    1
    30    27    29    1
    31    27    28    1
    32     9    10    1
    33    30    29    1
    34    10    15    1
    35    10    11    1
    36    16    15    2
    37    25    23   am
    38    15    17   am
    39    13    12   ar
    40    11    12    1
    41    23    24    2
    42    23    18    1
    43    12    14   ar
    44    17    18    1
    45    18    19    1
    46    19    20    1
    47    19    21    1
    48    21    22    1
