@<TRIPOS>MOLECULE
*****
 67 70 0 0 0
SMALL
GASTEIGER

@<TRIPOS>ATOM
      1 C          -5.5510    1.2004   -9.2530 C.ar    1  LIG11       0.0483
      2 C          -5.5104   -0.1647   -9.0879 C.ar    1  LIG11       0.0543
      3 C          -6.1096   -0.6429   -7.9460 C.ar    1  LIG11       0.0483
      4 N          -6.7005    0.1497   -7.0277 N.ar    1  LIG11      -0.2022
      5 N          -6.1202    2.0427   -8.3639 N.ar    1  LIG11      -0.2022
      6 C          -6.4396   -0.6357   -1.3635 C.ar    1  LIG11      -0.0504
      7 C          -5.3980   -0.0875   -0.6145 C.ar    1  LIG11      -0.0583
      8 C          -4.9080    1.1947   -0.9032 C.ar    1  LIG11      -0.0535
      9 C          -5.4524    1.9883   -1.9312 C.ar    1  LIG11      -0.0094
     10 C          -6.4998    1.4083   -2.6724 C.ar    1  LIG11      -0.0535
     11 C          -6.9700    0.1139   -2.4125 C.ar    1  LIG11      -0.0583
     12 C          -4.4217    4.1776    4.6187 C.ar    1  LIG11      -0.0561
     13 C          -4.6860    4.6016    3.3136 C.ar    1  LIG11      -0.0348
     14 C          -5.6295    3.9234    2.5402 C.ar    1  LIG11       0.1086
     15 C          -6.3175    2.8350    3.0648 C.ar    1  LIG11      -0.0348
     16 C          -6.0564    2.4270    4.3787 C.ar    1  LIG11      -0.0561
     17 C          -4.8369    2.6243    6.6376 C.3     1  LIG11       0.0132
     18 C          -5.1170    3.0968    5.1924 C.ar    1  LIG11      -0.0394
     19 C          -3.8292    1.4588    6.5604 C.3     1  LIG11      -0.0537
     20 C          -4.2212    3.7233    7.5550 C.3     1  LIG11       0.0533
     21 C          -6.1242    2.1235    7.3363 C.3     1  LIG11      -0.0537
     22 O          -5.1114    4.8125    7.7837 O.3     1  LIG11      -0.3942
     23 S          -5.9475    4.4924    0.8852 S.O2    1  LIG11       0.0735
     24 O          -5.9873    5.9377    0.9487 O.2     1  LIG11      -0.1499
     25 O          -7.0448    3.7264    0.3403 O.2     1  LIG11      -0.1499
     26 N          -4.4932    4.0340    0.1381 N.pl3   1  LIG11      -0.1988
     27 C          -4.9473    3.3588   -2.2253 C.ar    1  LIG11       0.0847
     28 C          -4.8187    3.8892   -3.5115 C.ar    1  LIG11       0.2276
     29 N          -4.3391    5.1195   -3.7992 N.ar    1  LIG11      -0.2008
     30 C          -3.9484    5.8633   -2.7675 C.ar    1  LIG11       0.1219
     31 N          -3.9792    5.4851   -1.4939 N.ar    1  LIG11      -0.2186
     32 C          -4.4956    4.2632   -1.2669 C.ar    1  LIG11       0.1524
     33 C          -6.9381   -2.0222   -1.0873 C.3     1  LIG11      -0.0397
     34 O          -5.1005    3.0702   -4.5833 O.3     1  LIG11      -0.4724
     35 C          -5.2690    3.6984   -5.8600 C.3     1  LIG11       0.1252
     36 C          -6.7385    3.5988   -6.2847 C.3     1  LIG11       0.1267
     37 O          -7.2278    2.2543   -6.3008 O.3     1  LIG11      -0.4590
     38 C          -6.6626    1.4670   -7.2754 C.ar    1  LIG11       0.3180
     39 BR         -4.6872   -1.2982  -10.3361 Br      1  LIG11      -0.0472
     40 H          -5.1124    1.6814  -10.1225 H       1  LIG11       0.0843
     41 H          -6.1354   -1.7037   -7.7158 H       1  LIG11       0.0843
     42 H          -4.9539   -0.6529    0.2015 H       1  LIG11       0.0620
     43 H          -4.0814    1.5597   -0.2985 H       1  LIG11       0.0624
     44 H          -6.9797    1.9544   -3.4818 H       1  LIG11       0.0624
     45 H          -7.7604   -0.2936   -3.0397 H       1  LIG11       0.0620
     46 H          -3.6594    4.7226    5.1694 H       1  LIG11       0.0621
     47 H          -4.1529    5.4611    2.9132 H       1  LIG11       0.0637
     48 H          -7.0539    2.2997    2.4686 H       1  LIG11       0.0637
     49 H          -6.6049    1.5649    4.7519 H       1  LIG11       0.0621
     50 H          -4.2195    0.6259    5.9640 H       1  LIG11       0.0239
     51 H          -3.5977    1.0685    7.5583 H       1  LIG11       0.0239
     52 H          -2.8859    1.7774    6.1010 H       1  LIG11       0.0239
     53 H          -3.2790    4.1197    7.1631 H       1  LIG11       0.0566
     54 H          -3.9839    3.3029    8.5397 H       1  LIG11       0.0566
     55 H          -6.9243    2.8710    7.2866 H       1  LIG11       0.0239
     56 H          -5.9371    1.9051    8.3946 H       1  LIG11       0.0239
     57 H          -6.5040    1.1969    6.8931 H       1  LIG11       0.0239
     58 H          -5.4866    5.0818    6.9271 H       1  LIG11       0.2094
     59 H          -3.7817    4.6758    0.4897 H       1  LIG11       0.1753
     60 H          -3.5673    6.8544   -2.9844 H       1  LIG11       0.1049
     61 H          -6.8737   -2.2540   -0.0189 H       1  LIG11       0.0278
     62 H          -6.3452   -2.7535   -1.6453 H       1  LIG11       0.0278
     63 H          -7.9892   -2.1256   -1.3775 H       1  LIG11       0.0278
     64 H          -4.6186    3.1567   -6.5531 H       1  LIG11       0.0731
     65 H          -4.9593    4.7473   -5.9044 H       1  LIG11       0.0731
     66 H          -6.9185    4.0965   -7.2455 H       1  LIG11       0.0732
     67 H          -7.3502    4.1262   -5.5433 H       1  LIG11       0.0732
@<TRIPOS>BOND
     1     1     2   ar
     2     2     3   ar
     3     2    39    1
     4     3     4   ar
     5     4    38   ar
     6     5     1   ar
     7     6     7   ar
     8     6    33    1
     9     7     8   ar
    10     8     9   ar
    11     9    10   ar
    12    10    11   ar
    13    11     6   ar
    14    12    13   ar
    15    13    14   ar
    16    14    15   ar
    17    15    16   ar
    18    16    18   ar
    19    17    18    1
    20    17    21    1
    21    17    20    1
    22    17    19    1
    23    18    12   ar
    24    20    22    1
    25    23    26    1
    26    23    25    2
    27    23    24    2
    28    23    14    1
    29    26    32    1
    30    27    28   ar
    31    27     9    1
    32    28    29   ar
    33    29    30   ar
    34    30    31   ar
    35    31    32   ar
    36    32    27   ar
    37    34    35    1
    38    34    28    1
    39    35    36    1
    40    36    37    1
    41    37    38    1
    42    38     5   ar
    43     1    40    1
    44     3    41    1
    45     7    42    1
    46     8    43    1
    47    10    44    1
    48    11    45    1
    49    12    46    1
    50    13    47    1
    51    15    48    1
    52    16    49    1
    53    19    50    1
    54    19    51    1
    55    19    52    1
    56    20    53    1
    57    20    54    1
    58    21    55    1
    59    21    56    1
    60    21    57    1
    61    22    58    1
    62    26    59    1
    63    30    60    1
    64    33    61    1
    65    33    62    1
    66    33    63    1
    67    35    64    1
    68    35    65    1
    69    36    66    1
    70    36    67    1
@<TRIPOS>MOLECULE
../1EDN/PCA3_17-21.pdb
 47 48 0 0 0
SMALL
GASTEIGER

@<TRIPOS>ATOM
      1  N         -4.2370    0.0490   -1.5930 N.3    17  LEU17      -0.1231
      2  CA        -5.5250   -0.5610   -1.9200 C.3    17  LEU17       0.1693
      3  CB        -5.7360   -1.8160   -1.1010 C.3    17  LEU17       0.0284
      4  CG        -6.9950   -2.5690   -1.5730 C.3    17  LEU17       0.0019
      5  CD1       -6.7530   -3.1800   -3.0080 C.3    17  LEU17       0.0001
      6  CD2       -7.2580   -3.7400   -0.6960 C.3    17  LEU17       0.0001
      7  C         -6.6810    0.4320   -1.9250 C.2    17  LEU17       0.2592
      8  O         -7.3270    0.6200   -2.9560 O.2    17  LEU17      -0.2718
      9  N         -6.9500    1.1080   -0.7900 N.am   18  ASP18      -0.1960
     10  CA        -8.0880    2.0070   -0.5710 C.3    18  ASP18       0.1840
     11  CB        -9.1090    1.3410    0.3760 C.3    18  ASP18       0.1450
     12  CG       -10.1470    2.2990    0.9520 C.2    18  ASP18       0.3671
     13  OD1      -11.0720    2.5310    0.1500 O.co2  18  ASP18      -0.2456
     14  OD2      -10.1960    2.6850    2.1610 O.co2  18  ASP18      -0.2456
     15  C         -7.6280    3.3500    0.0060 C.2    18  ASP18       0.2622
     16  O         -7.9950    4.4650   -0.3580 O.2    18  ASP18      -0.2715
     17  N         -6.8140    3.2050    1.0390 N.am   19  ILE19      -0.1963
     18  CA        -6.1800    4.3790    1.8160 C.3    19  ILE19       0.1727
     19  CB        -5.3140    3.8890    3.0670 C.3    19  ILE19       0.0290
     20  CG2       -4.6600    5.0630    3.8540 C.3    19  ILE19       0.0023
     21  CG1       -6.1440    2.9790    3.9890 C.3    19  ILE19       0.0022
     22  CD1       -5.5170    2.2940    5.2130 C.3    19  ILE19       0.0001
     23  C         -5.2670    5.2520    0.8640 C.2    19  ILE19       0.2616
     24  O         -5.3920    6.4650    0.9090 O.2    19  ILE19      -0.2715
     25  N         -4.4890    4.6060    0.0020 N.am   20  ILE20      -0.1963
     26  CA        -3.9690    5.2910   -1.1850 C.3    20  ILE20       0.1727
     27  CB        -2.4460    5.7340   -1.0120 C.3    20  ILE20       0.0290
     28  CG2       -2.3030    7.0110   -0.1100 C.3    20  ILE20       0.0023
     29  CG1       -1.4300    4.6170   -0.6100 C.3    20  ILE20       0.0022
     30  CD1        0.0800    4.9990   -0.7110 C.3    20  ILE20       0.0001
     31  C         -4.1660    4.3690   -2.4130 C.2    20  ILE20       0.2617
     32  O         -3.9200    3.1710   -2.5010 O.2    20  ILE20      -0.2715
     33  N         -4.6410    5.0460   -3.5090 N.am   21  TRP21      -0.1938
     34  CA        -4.8980    4.4430   -4.8120 C.3    21  TRP21       0.2021
     35  CB        -6.2680    3.7450   -4.8170 C.3    21  TRP21       0.0612
     36  CG        -6.5090    2.9660   -6.0890 C.ar   21  TRP21       0.0007
     37  CD1       -7.0550    3.4090   -7.2190 C.ar   21  TRP21       0.0946
     38  NE1       -7.1560    2.4190   -8.1260 N.ar   21  TRP21      -0.2442
     39  CE2       -6.6880    1.2600   -7.6470 C.ar   21  TRP21       0.0810
     40  CZ2       -6.5320   -0.1050   -8.0600 C.ar   21  TRP21       0.0191
     41  CH2       -5.9630   -1.0770   -7.2340 C.ar   21  TRP21       0.0015
     42  CZ3       -5.4330   -0.7150   -5.9030 C.ar   21  TRP21       0.0001
     43  CE3       -5.5290    0.6400   -5.5430 C.ar   21  TRP21       0.0012
     44  CD2       -6.2440    1.5830   -6.3190 C.ar   21  TRP21       0.0152
     45  C         -4.7460    5.5030   -5.9410 C.2    21  TRP21       0.3845
     46  O         -5.6740    6.3580   -6.0770 O.co2  21  TRP21      -0.2437
     47  OXT       -3.7150    5.4030   -6.6310 O.co2  21  TRP21      -0.2437
@<TRIPOS>BOND
     1    38    39   ar
     2    38    37   ar
     3    40    39   ar
     4    40    41   ar
     5    39    44   ar
     6    41    42   ar
     7    37    36   ar
     8    47    45   ar
     9    44    36   ar
    10    44    43   ar
    11    36    35    1
    12    46    45   ar
    13    45    34    1
    14    42    43   ar
    15    35    34    1
    16    34    33    1
    17    33    31   am
    18     5     4    1
    19     8     7    2
    20    32    31    2
    21    31    26    1
    22     7     2    1
    23     7     9   am
    24     2     1    1
    25     2     3    1
    26     4     3    1
    27     4     6    1
    28    26    27    1
    29    26    25    1
    30    27    29    1
    31    27    28    1
    32     9    10    1
    33    30    29    1
    34    10    15    1
    35    10    11    1
    36    16    15    2
    37    25    23   am
    38    15    17   am
    39    13    12   ar
    40    11    12    1
    41    23    24    2
    42    23    18    1
    43    12    14   ar
    44    17    18    1
    45    18    19    1
    46    19    20    1
    47    19    21    1
    48    21    22    1
