@<TRIPOS>MOLECULE
108002
 64 68 0 0 0
SMALL
GASTEIGER

@<TRIPOS>ATOM
      1 O          -8.6368    6.0897   -4.2774 O.co2   1  LIG11      -0.5495
      2 O          -9.7397    4.3128   -5.1573 O.co2   1  LIG11      -0.5495
      3 O          -2.3861    4.5340   -1.1444 O.3     1  LIG11      -0.4920
      4 O          -6.6143    1.5895   -1.7428 O.3     1  LIG11      -0.4858
      5 O          -5.4218   -0.5434   -6.6579 O.3     1  LIG11      -0.4526
      6 O          -6.4545   -0.1142   -8.7947 O.3     1  LIG11      -0.4526
      7 O          -9.7025    1.7545    1.8889 O.3     1  LIG11      -0.4950
      8 O          -6.0252   -0.8192    0.0749 O.co2   1  LIG11      -0.5463
      9 O          -4.9061   -1.2406   -1.8645 O.co2   1  LIG11      -0.5463
     10 C          -7.7398    3.9005   -3.9570 C.3     1  LIG11       0.0203
     11 C          -7.2340    4.3409   -2.5663 C.3     1  LIG11       0.0218
     12 C          -6.5484    4.0172   -4.9387 C.3     1  LIG11       0.0184
     13 C          -5.7324    4.2463   -2.6908 C.ar    1  LIG11      -0.0320
     14 C          -5.3470    4.0728   -4.0205 C.ar    1  LIG11      -0.0353
     15 C          -6.5278    2.9014   -5.9768 C.ar    1  LIG11      -0.0356
     16 C          -7.8784    3.5882   -1.4069 C.ar    1  LIG11       0.0026
     17 C          -8.8038    4.8555   -4.5003 C.2     1  LIG11       0.0466
     18 C          -4.7859    4.4013   -1.6810 C.ar    1  LIG11      -0.0159
     19 C          -4.0024    4.0355   -4.3624 C.ar    1  LIG11      -0.0542
     20 C          -3.4316    4.3713   -2.0146 C.ar    1  LIG11       0.1208
     21 C          -7.5801    2.2612   -1.0383 C.ar    1  LIG11       0.1283
     22 C          -5.9471    1.6458   -5.7224 C.ar    1  LIG11      -0.0124
     23 C          -7.1492    3.1285   -7.2296 C.ar    1  LIG11      -0.0543
     24 C          -3.0486    4.1670   -3.3505 C.ar    1  LIG11      -0.0196
     25 C          -8.8688    4.2777   -0.6770 C.ar    1  LIG11      -0.0510
     26 C          -5.9627    0.7026   -6.7282 C.ar    1  LIG11       0.1665
     27 C          -7.1582    2.1502   -8.2282 C.ar    1  LIG11      -0.0159
     28 C          -8.2084    1.6958    0.0810 C.ar    1  LIG11       0.0221
     29 C          -9.5013    3.6978    0.4243 C.ar    1  LIG11      -0.0194
     30 C          -6.5489    0.9479   -7.9478 C.ar    1  LIG11       0.1662
     31 C          -9.1511    2.4117    0.8204 C.ar    1  LIG11       0.1236
     32 C          -2.6631    5.1306    0.1217 C.3     1  LIG11       0.0893
     33 C          -5.7765   -1.0653   -7.9472 C.3     1  LIG11       0.2332
     34 C          -6.8277    0.1752   -1.9495 C.3     1  LIG11       0.1287
     35 C          -2.8668    6.6446    0.0136 C.3     1  LIG11      -0.0215
     36 C          -5.8060   -0.6798   -1.1670 C.2     1  LIG11       0.0789
     37 C         -10.0238    2.5868    2.9943 C.3     1  LIG11       0.0788
     38 C          -1.6958    7.3412   -0.6673 C.3     1  LIG11      -0.0622
     39 H          -8.1399    2.8780   -3.9282 H       1  LIG11       0.0379
     40 H          -7.4156    5.4107   -2.3986 H       1  LIG11       0.0405
     41 H          -6.5529    4.9777   -5.4743 H       1  LIG11       0.0404
     42 H          -5.1383    4.5311   -0.6664 H       1  LIG11       0.0657
     43 H          -3.6971    3.8975   -5.3932 H       1  LIG11       0.0622
     44 H          -5.4971    1.4116   -4.7611 H       1  LIG11       0.0658
     45 H          -7.6555    4.0779   -7.4078 H       1  LIG11       0.0622
     46 H          -1.9933    4.1236   -3.6008 H       1  LIG11       0.0654
     47 H          -9.1564    5.2835   -0.9819 H       1  LIG11       0.0623
     48 H          -7.6435    2.3295   -9.1785 H       1  LIG11       0.0655
     49 H          -7.9396    0.6971    0.4140 H       1  LIG11       0.0691
     50 H         -10.2673    4.2646    0.9391 H       1  LIG11       0.0654
     51 H          -3.4927    4.6392    0.6404 H       1  LIG11       0.0696
     52 H          -1.7808    4.9446    0.7460 H       1  LIG11       0.0696
     53 H          -4.8618   -1.3909   -8.4563 H       1  LIG11       0.1166
     54 H          -6.4266   -1.9375   -7.8098 H       1  LIG11       0.1166
     55 H          -7.8528   -0.1445   -1.7257 H       1  LIG11       0.0760
     56 H          -6.6859   -0.0045   -3.0217 H       1  LIG11       0.0760
     57 H          -3.7760    6.8664   -0.5557 H       1  LIG11       0.0295
     58 H          -3.0048    7.0615    1.0171 H       1  LIG11       0.0295
     59 H         -10.1848    1.9403    3.8630 H       1  LIG11       0.0660
     60 H          -9.2057    3.2737    3.2387 H       1  LIG11       0.0660
     61 H         -10.9538    3.1344    2.8127 H       1  LIG11       0.0660
     62 H          -1.5720    6.9977   -1.6988 H       1  LIG11       0.0231
     63 H          -1.8639    8.4223   -0.6937 H       1  LIG11       0.0231
     64 H          -0.7625    7.1547   -0.1281 H       1  LIG11       0.0231
@<TRIPOS>BOND
     1     1    17   ar
     2     2    17   ar
     3     3    20    1
     4     3    32    1
     5     4    21    1
     6     4    34    1
     7     5    26    1
     8     5    33    1
     9     6    30    1
    10     6    33    1
    11     7    31    1
    12     7    37    1
    13     8    36   ar
    14     9    36   ar
    15    10    11    1
    16    10    12    1
    17    10    17    1
    18    11    13    1
    19    11    16    1
    20    12    14    1
    21    12    15    1
    22    13    14   ar
    23    13    18   ar
    24    14    19   ar
    25    15    22   ar
    26    15    23   ar
    27    16    21   ar
    28    16    25   ar
    29    18    20   ar
    30    19    24   ar
    31    20    24   ar
    32    21    28   ar
    33    22    26   ar
    34    23    27   ar
    35    25    29   ar
    36    26    30   ar
    37    27    30   ar
    38    28    31   ar
    39    29    31   ar
    40    32    35    1
    41    34    36    1
    42    35    38    1
    43    10    39    1
    44    11    40    1
    45    12    41    1
    46    18    42    1
    47    19    43    1
    48    22    44    1
    49    23    45    1
    50    24    46    1
    51    25    47    1
    52    27    48    1
    53    28    49    1
    54    29    50    1
    55    32    51    1
    56    32    52    1
    57    33    53    1
    58    33    54    1
    59    34    55    1
    60    34    56    1
    61    35    57    1
    62    35    58    1
    63    37    59    1
    64    37    60    1
    65    37    61    1
    66    38    62    1
    67    38    63    1
    68    38    64    1
@<TRIPOS>MOLECULE
../1EDN/PCA3_17-21.pdb
 47 48 0 0 0
SMALL
GASTEIGER

@<TRIPOS>ATOM
      1  N         -4.2370    0.0490   -1.5930 N.3    17  LEU17      -0.1231
      2  CA        -5.5250   -0.5610   -1.9200 C.3    17  LEU17       0.1693
      3  CB        -5.7360   -1.8160   -1.1010 C.3    17  LEU17       0.0284
      4  CG        -6.9950   -2.5690   -1.5730 C.3    17  LEU17       0.0019
      5  CD1       -6.7530   -3.1800   -3.0080 C.3    17  LEU17       0.0001
      6  CD2       -7.2580   -3.7400   -0.6960 C.3    17  LEU17       0.0001
      7  C         -6.6810    0.4320   -1.9250 C.2    17  LEU17       0.2592
      8  O         -7.3270    0.6200   -2.9560 O.2    17  LEU17      -0.2718
      9  N         -6.9500    1.1080   -0.7900 N.am   18  ASP18      -0.1960
     10  CA        -8.0880    2.0070   -0.5710 C.3    18  ASP18       0.1840
     11  CB        -9.1090    1.3410    0.3760 C.3    18  ASP18       0.1450
     12  CG       -10.1470    2.2990    0.9520 C.2    18  ASP18       0.3671
     13  OD1      -11.0720    2.5310    0.1500 O.co2  18  ASP18      -0.2456
     14  OD2      -10.1960    2.6850    2.1610 O.co2  18  ASP18      -0.2456
     15  C         -7.6280    3.3500    0.0060 C.2    18  ASP18       0.2622
     16  O         -7.9950    4.4650   -0.3580 O.2    18  ASP18      -0.2715
     17  N         -6.8140    3.2050    1.0390 N.am   19  ILE19      -0.1963
     18  CA        -6.1800    4.3790    1.8160 C.3    19  ILE19       0.1727
     19  CB        -5.3140    3.8890    3.0670 C.3    19  ILE19       0.0290
     20  CG2       -4.6600    5.0630    3.8540 C.3    19  ILE19       0.0023
     21  CG1       -6.1440    2.9790    3.9890 C.3    19  ILE19       0.0022
     22  CD1       -5.5170    2.2940    5.2130 C.3    19  ILE19       0.0001
     23  C         -5.2670    5.2520    0.8640 C.2    19  ILE19       0.2616
     24  O         -5.3920    6.4650    0.9090 O.2    19  ILE19      -0.2715
     25  N         -4.4890    4.6060    0.0020 N.am   20  ILE20      -0.1963
     26  CA        -3.9690    5.2910   -1.1850 C.3    20  ILE20       0.1727
     27  CB        -2.4460    5.7340   -1.0120 C.3    20  ILE20       0.0290
     28  CG2       -2.3030    7.0110   -0.1100 C.3    20  ILE20       0.0023
     29  CG1       -1.4300    4.6170   -0.6100 C.3    20  ILE20       0.0022
     30  CD1        0.0800    4.9990   -0.7110 C.3    20  ILE20       0.0001
     31  C         -4.1660    4.3690   -2.4130 C.2    20  ILE20       0.2617
     32  O         -3.9200    3.1710   -2.5010 O.2    20  ILE20      -0.2715
     33  N         -4.6410    5.0460   -3.5090 N.am   21  TRP21      -0.1938
     34  CA        -4.8980    4.4430   -4.8120 C.3    21  TRP21       0.2021
     35  CB        -6.2680    3.7450   -4.8170 C.3    21  TRP21       0.0612
     36  CG        -6.5090    2.9660   -6.0890 C.ar   21  TRP21       0.0007
     37  CD1       -7.0550    3.4090   -7.2190 C.ar   21  TRP21       0.0946
     38  NE1       -7.1560    2.4190   -8.1260 N.ar   21  TRP21      -0.2442
     39  CE2       -6.6880    1.2600   -7.6470 C.ar   21  TRP21       0.0810
     40  CZ2       -6.5320   -0.1050   -8.0600 C.ar   21  TRP21       0.0191
     41  CH2       -5.9630   -1.0770   -7.2340 C.ar   21  TRP21       0.0015
     42  CZ3       -5.4330   -0.7150   -5.9030 C.ar   21  TRP21       0.0001
     43  CE3       -5.5290    0.6400   -5.5430 C.ar   21  TRP21       0.0012
     44  CD2       -6.2440    1.5830   -6.3190 C.ar   21  TRP21       0.0152
     45  C         -4.7460    5.5030   -5.9410 C.2    21  TRP21       0.3845
     46  O         -5.6740    6.3580   -6.0770 O.co2  21  TRP21      -0.2437
     47  OXT       -3.7150    5.4030   -6.6310 O.co2  21  TRP21      -0.2437
@<TRIPOS>BOND
     1    38    39   ar
     2    38    37   ar
     3    40    39   ar
     4    40    41   ar
     5    39    44   ar
     6    41    42   ar
     7    37    36   ar
     8    47    45   ar
     9    44    36   ar
    10    44    43   ar
    11    36    35    1
    12    46    45   ar
    13    45    34    1
    14    42    43   ar
    15    35    34    1
    16    34    33    1
    17    33    31   am
    18     5     4    1
    19     8     7    2
    20    32    31    2
    21    31    26    1
    22     7     2    1
    23     7     9   am
    24     2     1    1
    25     2     3    1
    26     4     3    1
    27     4     6    1
    28    26    27    1
    29    26    25    1
    30    27    29    1
    31    27    28    1
    32     9    10    1
    33    30    29    1
    34    10    15    1
    35    10    11    1
    36    16    15    2
    37    25    23   am
    38    15    17   am
    39    13    12   ar
    40    11    12    1
    41    23    24    2
    42    23    18    1
    43    12    14   ar
    44    17    18    1
    45    18    19    1
    46    19    20    1
    47    19    21    1
    48    21    22    1
