@<TRIPOS>MOLECULE
9871593
 62 65 0 0 0
SMALL
GASTEIGER

@<TRIPOS>ATOM
      1 O          -6.0566   -0.2888   -7.0933 O.3     1  LIG11      -0.4526
      2 O          -7.5570    0.7716   -8.6596 O.3     1  LIG11      -0.4526
      3 O          -5.6533   -0.3106   -1.0715 O.3     1  LIG11      -0.4913
      4 O          -9.4714    2.1420    0.7048 O.3     1  LIG11      -0.4913
      5 O          -7.7320   -0.0745    0.8879 O.3     1  LIG11      -0.4885
      6 O          -5.0076    6.5174   -3.1461 O.2     1  LIG11      -0.2870
      7 O          -2.9171    3.9227   -4.0942 O.co2   1  LIG11      -0.5446
      8 O          -3.4593    4.8175   -6.1362 O.co2   1  LIG11      -0.5446
      9 O          -4.5573    4.4053    2.7735 O.3     1  LIG11      -0.4951
     10 C          -7.2201    3.9059   -3.2030 C.3     1  LIG11       0.0021
     11 C          -5.8206    4.3172   -3.5953 C.2     1  LIG11       0.0135
     12 C          -7.3112    2.8349   -2.1286 C.ar    1  LIG11      -0.0358
     13 C          -5.1883    3.9577   -4.7332 C.2     1  LIG11       0.0117
     14 C          -5.8039    3.1362   -5.7853 C.ar    1  LIG11      -0.0121
     15 C          -5.1863    5.3737   -2.7406 C.2     1  LIG11       0.1901
     16 C          -8.3129    2.9028   -1.1565 C.ar    1  LIG11      -0.0126
     17 C          -6.4467    1.7328   -2.1082 C.ar    1  LIG11      -0.0126
     18 C          -5.5480    1.7608   -5.8710 C.ar    1  LIG11      -0.0084
     19 C          -6.1832    1.0487   -6.8654 C.ar    1  LIG11       0.1668
     20 C          -6.6799    3.7480   -6.7110 C.ar    1  LIG11      -0.0503
     21 C          -7.0404    1.6504   -7.7584 C.ar    1  LIG11       0.1663
     22 C          -6.5370    0.7398   -1.1182 C.ar    1  LIG11       0.1654
     23 C          -8.4525    1.9002   -0.1876 C.ar    1  LIG11       0.1654
     24 C          -5.0325    5.1015   -1.3006 C.ar    1  LIG11       0.0222
     25 C          -7.5657    0.8044   -0.1557 C.ar    1  LIG11       0.2035
     26 C          -7.3096    3.0007   -7.7099 C.ar    1  LIG11      -0.0156
     27 C          -3.7090    4.3008   -5.0116 C.2     1  LIG11       0.0726
     28 C          -6.8826   -0.4395   -8.2634 C.3     1  LIG11       0.2332
     29 C          -6.0206    5.5655   -0.4262 C.ar    1  LIG11      -0.0475
     30 C          -3.8973    4.4631   -0.8079 C.ar    1  LIG11      -0.0475
     31 C          -5.9067    5.3330    0.9452 C.ar    1  LIG11      -0.0193
     32 C          -3.7742    4.2599    0.5710 C.ar    1  LIG11      -0.0193
     33 C          -4.7856    4.6710    1.4491 C.ar    1  LIG11       0.1201
     34 C          -4.3507   -0.0663   -1.5981 C.3     1  LIG11       0.0790
     35 C         -10.2534    1.0050    1.0528 C.3     1  LIG11       0.0790
     36 C          -7.3179   -1.4200    0.6932 C.3     1  LIG11       0.0791
     37 C          -5.7030    4.4350    3.6180 C.3     1  LIG11       0.0788
     38 H          -7.7589    4.8033   -2.8697 H       1  LIG11       0.0363
     39 H          -7.7911    3.5409   -4.0639 H       1  LIG11       0.0363
     40 H          -9.0046    3.7420   -1.1453 H       1  LIG11       0.0658
     41 H          -5.6813    1.6688   -2.8754 H       1  LIG11       0.0658
     42 H          -4.8594    1.2762   -5.1890 H       1  LIG11       0.0661
     43 H          -6.8438    4.8229   -6.6573 H       1  LIG11       0.0625
     44 H          -7.9700    3.4711   -8.4266 H       1  LIG11       0.0655
     45 H          -6.2538   -0.7775   -9.0956 H       1  LIG11       0.1166
     46 H          -7.6375   -1.2080   -8.0622 H       1  LIG11       0.1166
     47 H          -6.8821    6.1001   -0.8166 H       1  LIG11       0.0626
     48 H          -3.1081    4.1461   -1.4884 H       1  LIG11       0.0626
     49 H          -6.7003    5.6930    1.5898 H       1  LIG11       0.0654
     50 H          -2.8840    3.7747    0.9623 H       1  LIG11       0.0654
     51 H          -3.7005   -0.8765   -1.2537 H       1  LIG11       0.0660
     52 H          -4.3609   -0.0965   -2.6920 H       1  LIG11       0.0660
     53 H          -3.9342    0.8762   -1.2270 H       1  LIG11       0.0660
     54 H         -11.2606    1.3596    1.2941 H       1  LIG11       0.0660
     55 H         -10.3464    0.2858    0.2313 H       1  LIG11       0.0660
     56 H          -9.8539    0.5292    1.9531 H       1  LIG11       0.0660
     57 H          -7.8591   -2.0379    1.4171 H       1  LIG11       0.0660
     58 H          -7.5708   -1.7957   -0.3041 H       1  LIG11       0.0660
     59 H          -6.2523   -1.5308    0.9141 H       1  LIG11       0.0660
     60 H          -5.3997    4.0775    4.6067 H       1  LIG11       0.0660
     61 H          -6.0795    5.4560    3.7403 H       1  LIG11       0.0660
     62 H          -6.4878    3.7666    3.2472 H       1  LIG11       0.0660
@<TRIPOS>BOND
     1     1    19    1
     2     1    28    1
     3     2    28    1
     4     2    21    1
     5     3    22    1
     6     3    34    1
     7     4    23    1
     8     4    35    1
     9     5    25    1
    10     5    36    1
    11     6    15    2
    12     7    27   ar
    13     8    27   ar
    14     9    33    1
    15     9    37    1
    16    10    11    1
    17    10    12    1
    18    11    13    2
    19    11    15    1
    20    12    16   ar
    21    12    17   ar
    22    13    14    1
    23    13    27    1
    24    14    20   ar
    25    14    18   ar
    26    15    24    1
    27    16    23   ar
    28    17    22   ar
    29    18    19   ar
    30    19    21   ar
    31    20    26   ar
    32    21    26   ar
    33    22    25   ar
    34    23    25   ar
    35    24    29   ar
    36    24    30   ar
    37    29    31   ar
    38    30    32   ar
    39    31    33   ar
    40    32    33   ar
    41    10    38    1
    42    10    39    1
    43    16    40    1
    44    17    41    1
    45    18    42    1
    46    20    43    1
    47    26    44    1
    48    28    45    1
    49    28    46    1
    50    29    47    1
    51    30    48    1
    52    31    49    1
    53    32    50    1
    54    34    51    1
    55    34    52    1
    56    34    53    1
    57    35    54    1
    58    35    55    1
    59    35    56    1
    60    36    57    1
    61    36    58    1
    62    36    59    1
    63    37    60    1
    64    37    61    1
    65    37    62    1
@<TRIPOS>MOLECULE
../1EDN/PCA3_17-21.pdb
 47 48 0 0 0
SMALL
GASTEIGER

@<TRIPOS>ATOM
      1  N         -4.2370    0.0490   -1.5930 N.3    17  LEU17      -0.1231
      2  CA        -5.5250   -0.5610   -1.9200 C.3    17  LEU17       0.1693
      3  CB        -5.7360   -1.8160   -1.1010 C.3    17  LEU17       0.0284
      4  CG        -6.9950   -2.5690   -1.5730 C.3    17  LEU17       0.0019
      5  CD1       -6.7530   -3.1800   -3.0080 C.3    17  LEU17       0.0001
      6  CD2       -7.2580   -3.7400   -0.6960 C.3    17  LEU17       0.0001
      7  C         -6.6810    0.4320   -1.9250 C.2    17  LEU17       0.2592
      8  O         -7.3270    0.6200   -2.9560 O.2    17  LEU17      -0.2718
      9  N         -6.9500    1.1080   -0.7900 N.am   18  ASP18      -0.1960
     10  CA        -8.0880    2.0070   -0.5710 C.3    18  ASP18       0.1840
     11  CB        -9.1090    1.3410    0.3760 C.3    18  ASP18       0.1450
     12  CG       -10.1470    2.2990    0.9520 C.2    18  ASP18       0.3671
     13  OD1      -11.0720    2.5310    0.1500 O.co2  18  ASP18      -0.2456
     14  OD2      -10.1960    2.6850    2.1610 O.co2  18  ASP18      -0.2456
     15  C         -7.6280    3.3500    0.0060 C.2    18  ASP18       0.2622
     16  O         -7.9950    4.4650   -0.3580 O.2    18  ASP18      -0.2715
     17  N         -6.8140    3.2050    1.0390 N.am   19  ILE19      -0.1963
     18  CA        -6.1800    4.3790    1.8160 C.3    19  ILE19       0.1727
     19  CB        -5.3140    3.8890    3.0670 C.3    19  ILE19       0.0290
     20  CG2       -4.6600    5.0630    3.8540 C.3    19  ILE19       0.0023
     21  CG1       -6.1440    2.9790    3.9890 C.3    19  ILE19       0.0022
     22  CD1       -5.5170    2.2940    5.2130 C.3    19  ILE19       0.0001
     23  C         -5.2670    5.2520    0.8640 C.2    19  ILE19       0.2616
     24  O         -5.3920    6.4650    0.9090 O.2    19  ILE19      -0.2715
     25  N         -4.4890    4.6060    0.0020 N.am   20  ILE20      -0.1963
     26  CA        -3.9690    5.2910   -1.1850 C.3    20  ILE20       0.1727
     27  CB        -2.4460    5.7340   -1.0120 C.3    20  ILE20       0.0290
     28  CG2       -2.3030    7.0110   -0.1100 C.3    20  ILE20       0.0023
     29  CG1       -1.4300    4.6170   -0.6100 C.3    20  ILE20       0.0022
     30  CD1        0.0800    4.9990   -0.7110 C.3    20  ILE20       0.0001
     31  C         -4.1660    4.3690   -2.4130 C.2    20  ILE20       0.2617
     32  O         -3.9200    3.1710   -2.5010 O.2    20  ILE20      -0.2715
     33  N         -4.6410    5.0460   -3.5090 N.am   21  TRP21      -0.1938
     34  CA        -4.8980    4.4430   -4.8120 C.3    21  TRP21       0.2021
     35  CB        -6.2680    3.7450   -4.8170 C.3    21  TRP21       0.0612
     36  CG        -6.5090    2.9660   -6.0890 C.ar   21  TRP21       0.0007
     37  CD1       -7.0550    3.4090   -7.2190 C.ar   21  TRP21       0.0946
     38  NE1       -7.1560    2.4190   -8.1260 N.ar   21  TRP21      -0.2442
     39  CE2       -6.6880    1.2600   -7.6470 C.ar   21  TRP21       0.0810
     40  CZ2       -6.5320   -0.1050   -8.0600 C.ar   21  TRP21       0.0191
     41  CH2       -5.9630   -1.0770   -7.2340 C.ar   21  TRP21       0.0015
     42  CZ3       -5.4330   -0.7150   -5.9030 C.ar   21  TRP21       0.0001
     43  CE3       -5.5290    0.6400   -5.5430 C.ar   21  TRP21       0.0012
     44  CD2       -6.2440    1.5830   -6.3190 C.ar   21  TRP21       0.0152
     45  C         -4.7460    5.5030   -5.9410 C.2    21  TRP21       0.3845
     46  O         -5.6740    6.3580   -6.0770 O.co2  21  TRP21      -0.2437
     47  OXT       -3.7150    5.4030   -6.6310 O.co2  21  TRP21      -0.2437
@<TRIPOS>BOND
     1    38    39   ar
     2    38    37   ar
     3    40    39   ar
     4    40    41   ar
     5    39    44   ar
     6    41    42   ar
     7    37    36   ar
     8    47    45   ar
     9    44    36   ar
    10    44    43   ar
    11    36    35    1
    12    46    45   ar
    13    45    34    1
    14    42    43   ar
    15    35    34    1
    16    34    33    1
    17    33    31   am
    18     5     4    1
    19     8     7    2
    20    32    31    2
    21    31    26    1
    22     7     2    1
    23     7     9   am
    24     2     1    1
    25     2     3    1
    26     4     3    1
    27     4     6    1
    28    26    27    1
    29    26    25    1
    30    27    29    1
    31    27    28    1
    32     9    10    1
    33    30    29    1
    34    10    15    1
    35    10    11    1
    36    16    15    2
    37    25    23   am
    38    15    17   am
    39    13    12   ar
    40    11    12    1
    41    23    24    2
    42    23    18    1
    43    12    14   ar
    44    17    18    1
    45    18    19    1
    46    19    20    1
    47    19    21    1
    48    21    22    1
