@<TRIPOS>MOLECULE
9939443
 70 74 0 0 0
SMALL
GASTEIGER

@<TRIPOS>ATOM
      1 S          -7.9734    1.6651   -2.3568 S.O2    1  LIG11       0.0908
      2 O          -6.7645    2.8660   -5.5100 O.3     1  LIG11      -0.4435
      3 O          -6.6554    1.1096   -2.1211 O.2     1  LIG11      -0.1484
      4 O          -8.9242    0.9825   -3.2132 O.2     1  LIG11      -0.1484
      5 O          -4.0165    3.9789   -5.8817 O.3     1  LIG11      -0.4715
      6 O          -7.9990    2.4658   -7.7743 O.3     1  LIG11      -0.4914
      7 O          -6.2783    6.1900   -5.9743 O.3     1  LIG11      -0.3917
      8 N          -7.8503    3.2273   -3.0078 N.pl3   1  LIG11      -0.1950
      9 N         -10.0174    1.5608   -0.6407 N.ar    1  LIG11      -0.2351
     10 N          -5.8565    4.1255   -2.2389 N.ar    1  LIG11      -0.2073
     11 N          -3.9948    4.4584   -3.6789 N.ar    1  LIG11      -0.1899
     12 N          -2.2060    5.7518    0.8824 N.ar    1  LIG11      -0.2552
     13 N          -3.3833    5.8122    3.5128 N.ar    1  LIG11      -0.5621
     14 N          -5.3378    5.0177    2.6983 N.ar    1  LIG11      -0.1535
     15 N          -4.3237    5.6167    4.4435 N.ar    1  LIG11      -0.3597
     16 N          -5.4987    5.1487    4.0069 N.ar    1  LIG11      -0.0878
     17 C         -10.6153    2.5117    3.0233 C.3     1  LIG11      -0.0201
     18 C          -9.9583    2.3386    1.6642 C.ar    1  LIG11      -0.0266
     19 C         -12.1300    2.2711    3.0521 C.3     1  LIG11      -0.0586
     20 C          -9.9433    1.6095    4.0662 C.3     1  LIG11      -0.0586
     21 C          -8.7347    1.9863   -0.7662 C.ar    1  LIG11       0.1969
     22 C          -8.6375    2.7776    1.4694 C.ar    1  LIG11      -0.0535
     23 C         -10.5895    1.7436    0.5711 C.ar    1  LIG11       0.0332
     24 C          -8.0050    2.5898    0.2427 C.ar    1  LIG11      -0.0160
     25 C          -6.5169    3.6296   -3.2978 C.ar    1  LIG11       0.1882
     26 C          -5.9784    3.4395   -4.5569 C.ar    1  LIG11       0.2307
     27 C          -4.7140    3.9621   -4.7076 C.ar    1  LIG11       0.2641
     28 C          -4.5891    4.4984   -2.4724 C.ar    1  LIG11       0.1659
     29 C          -3.7777    4.9501   -1.3253 C.ar    1  LIG11       0.0227
     30 C          -6.2801    1.8312   -6.2853 C.ar    1  LIG11       0.1702
     31 C          -4.3090    5.0073   -0.0257 C.ar    1  LIG11      -0.0252
     32 C          -2.4325    5.3153   -1.4759 C.ar    1  LIG11      -0.0328
     33 C          -4.6292    4.7023   -6.9583 C.3     1  LIG11       0.1143
     34 C          -6.9490    1.6225   -7.5063 C.ar    1  LIG11       0.1621
     35 C          -3.5059    5.3986    1.0447 C.ar    1  LIG11       0.0708
     36 C          -5.2214    0.9948   -5.9177 C.ar    1  LIG11      -0.0157
     37 C          -1.7015    5.7030   -0.3655 C.ar    1  LIG11       0.0289
     38 C          -5.0127    6.1473   -6.6325 C.3     1  LIG11       0.0783
     39 C          -6.4947    0.6337   -8.3826 C.ar    1  LIG11      -0.0163
     40 C          -4.7782    0.0067   -6.7987 C.ar    1  LIG11      -0.0581
     41 C          -5.4053   -0.1657   -8.0311 C.ar    1  LIG11      -0.0581
     42 C          -4.0480    5.4218    2.4069 C.ar    1  LIG11       0.0207
     43 C          -8.9648    1.9924   -8.7048 C.3     1  LIG11       0.0790
     44 H          -6.5232    7.1275   -5.8870 H       1  LIG11       0.2095
     45 H          -8.4468    3.2393   -3.8370 H       1  LIG11       0.1754
     46 H          -4.1573    5.8112    5.4269 H       1  LIG11       0.1651
     47 H         -10.4608    3.5569    3.3242 H       1  LIG11       0.0344
     48 H         -12.3791    1.2273    2.8292 H       1  LIG11       0.0235
     49 H         -12.6479    2.9092    2.3282 H       1  LIG11       0.0235
     50 H         -12.5370    2.4994    4.0437 H       1  LIG11       0.0235
     51 H         -10.0263    0.5521    3.7899 H       1  LIG11       0.0235
     52 H         -10.4056    1.7401    5.0507 H       1  LIG11       0.0235
     53 H          -8.8783    1.8420    4.1728 H       1  LIG11       0.0235
     54 H          -8.0893    3.2572    2.2795 H       1  LIG11       0.0622
     55 H         -11.6088    1.3720    0.6274 H       1  LIG11       0.0833
     56 H          -6.9790    2.8999    0.0873 H       1  LIG11       0.0653
     57 H          -5.3466    4.7376    0.1491 H       1  LIG11       0.0646
     58 H          -1.9490    5.2902   -2.4490 H       1  LIG11       0.0640
     59 H          -5.4802    4.1511   -7.3627 H       1  LIG11       0.0720
     60 H          -3.8692    4.7265   -7.7476 H       1  LIG11       0.0720
     61 H          -4.7218    1.0951   -4.9584 H       1  LIG11       0.0655
     62 H          -0.6563    5.9866   -0.4545 H       1  LIG11       0.0830
     63 H          -4.2695    6.6252   -5.9883 H       1  LIG11       0.0591
     64 H          -5.1120    6.7152   -7.5629 H       1  LIG11       0.0591
     65 H          -6.9586    0.4750   -9.3502 H       1  LIG11       0.0655
     66 H          -3.9387   -0.6271   -6.5226 H       1  LIG11       0.0619
     67 H          -5.0488   -0.9288   -8.7189 H       1  LIG11       0.0619
     68 H          -9.8509    2.6288   -8.6179 H       1  LIG11       0.0660
     69 H          -9.2720    0.9639   -8.4856 H       1  LIG11       0.0660
     70 H          -8.5883    2.0821   -9.7283 H       1  LIG11       0.0660
@<TRIPOS>BOND
     1     1    21    1
     2     1     8    1
     3     1     4    2
     4     1     3    2
     5     2    26    1
     6     2    30    1
     7     5    27    1
     8     5    33    1
     9     6    34    1
    10     6    43    1
    11     7    38    1
    12     8    25    1
    13     9    23   ar
    14     9    21   ar
    15    10    25   ar
    16    10    28   ar
    17    11    27   ar
    18    11    28   ar
    19    12    37   ar
    20    12    35   ar
    21    13    15   ar
    22    13    42   ar
    23    14    42   ar
    24    14    16   ar
    25    15    16   ar
    26    17    18    1
    27    17    20    1
    28    17    19    1
    29    18    23   ar
    30    18    22   ar
    31    21    24   ar
    32    22    24   ar
    33    25    26   ar
    34    26    27   ar
    35    28    29    1
    36    29    31   ar
    37    29    32   ar
    38    30    36   ar
    39    30    34   ar
    40    31    35   ar
    41    32    37   ar
    42    33    38    1
    43    34    39   ar
    44    35    42    1
    45    36    40   ar
    46    39    41   ar
    47    40    41   ar
    48     7    44    1
    49     8    45    1
    50    15    46    1
    51    17    47    1
    52    19    48    1
    53    19    49    1
    54    19    50    1
    55    20    51    1
    56    20    52    1
    57    20    53    1
    58    22    54    1
    59    23    55    1
    60    24    56    1
    61    31    57    1
    62    32    58    1
    63    33    59    1
    64    33    60    1
    65    36    61    1
    66    37    62    1
    67    38    63    1
    68    38    64    1
    69    39    65    1
    70    40    66    1
    71    41    67    1
    72    43    68    1
    73    43    69    1
    74    43    70    1
@<TRIPOS>MOLECULE
../1EDN/PCA3_17-21.pdb
 47 48 0 0 0
SMALL
GASTEIGER

@<TRIPOS>ATOM
      1  N         -4.2370    0.0490   -1.5930 N.3    17  LEU17      -0.1231
      2  CA        -5.5250   -0.5610   -1.9200 C.3    17  LEU17       0.1693
      3  CB        -5.7360   -1.8160   -1.1010 C.3    17  LEU17       0.0284
      4  CG        -6.9950   -2.5690   -1.5730 C.3    17  LEU17       0.0019
      5  CD1       -6.7530   -3.1800   -3.0080 C.3    17  LEU17       0.0001
      6  CD2       -7.2580   -3.7400   -0.6960 C.3    17  LEU17       0.0001
      7  C         -6.6810    0.4320   -1.9250 C.2    17  LEU17       0.2592
      8  O         -7.3270    0.6200   -2.9560 O.2    17  LEU17      -0.2718
      9  N         -6.9500    1.1080   -0.7900 N.am   18  ASP18      -0.1960
     10  CA        -8.0880    2.0070   -0.5710 C.3    18  ASP18       0.1840
     11  CB        -9.1090    1.3410    0.3760 C.3    18  ASP18       0.1450
     12  CG       -10.1470    2.2990    0.9520 C.2    18  ASP18       0.3671
     13  OD1      -11.0720    2.5310    0.1500 O.co2  18  ASP18      -0.2456
     14  OD2      -10.1960    2.6850    2.1610 O.co2  18  ASP18      -0.2456
     15  C         -7.6280    3.3500    0.0060 C.2    18  ASP18       0.2622
     16  O         -7.9950    4.4650   -0.3580 O.2    18  ASP18      -0.2715
     17  N         -6.8140    3.2050    1.0390 N.am   19  ILE19      -0.1963
     18  CA        -6.1800    4.3790    1.8160 C.3    19  ILE19       0.1727
     19  CB        -5.3140    3.8890    3.0670 C.3    19  ILE19       0.0290
     20  CG2       -4.6600    5.0630    3.8540 C.3    19  ILE19       0.0023
     21  CG1       -6.1440    2.9790    3.9890 C.3    19  ILE19       0.0022
     22  CD1       -5.5170    2.2940    5.2130 C.3    19  ILE19       0.0001
     23  C         -5.2670    5.2520    0.8640 C.2    19  ILE19       0.2616
     24  O         -5.3920    6.4650    0.9090 O.2    19  ILE19      -0.2715
     25  N         -4.4890    4.6060    0.0020 N.am   20  ILE20      -0.1963
     26  CA        -3.9690    5.2910   -1.1850 C.3    20  ILE20       0.1727
     27  CB        -2.4460    5.7340   -1.0120 C.3    20  ILE20       0.0290
     28  CG2       -2.3030    7.0110   -0.1100 C.3    20  ILE20       0.0023
     29  CG1       -1.4300    4.6170   -0.6100 C.3    20  ILE20       0.0022
     30  CD1        0.0800    4.9990   -0.7110 C.3    20  ILE20       0.0001
     31  C         -4.1660    4.3690   -2.4130 C.2    20  ILE20       0.2617
     32  O         -3.9200    3.1710   -2.5010 O.2    20  ILE20      -0.2715
     33  N         -4.6410    5.0460   -3.5090 N.am   21  TRP21      -0.1938
     34  CA        -4.8980    4.4430   -4.8120 C.3    21  TRP21       0.2021
     35  CB        -6.2680    3.7450   -4.8170 C.3    21  TRP21       0.0612
     36  CG        -6.5090    2.9660   -6.0890 C.ar   21  TRP21       0.0007
     37  CD1       -7.0550    3.4090   -7.2190 C.ar   21  TRP21       0.0946
     38  NE1       -7.1560    2.4190   -8.1260 N.ar   21  TRP21      -0.2442
     39  CE2       -6.6880    1.2600   -7.6470 C.ar   21  TRP21       0.0810
     40  CZ2       -6.5320   -0.1050   -8.0600 C.ar   21  TRP21       0.0191
     41  CH2       -5.9630   -1.0770   -7.2340 C.ar   21  TRP21       0.0015
     42  CZ3       -5.4330   -0.7150   -5.9030 C.ar   21  TRP21       0.0001
     43  CE3       -5.5290    0.6400   -5.5430 C.ar   21  TRP21       0.0012
     44  CD2       -6.2440    1.5830   -6.3190 C.ar   21  TRP21       0.0152
     45  C         -4.7460    5.5030   -5.9410 C.2    21  TRP21       0.3845
     46  O         -5.6740    6.3580   -6.0770 O.co2  21  TRP21      -0.2437
     47  OXT       -3.7150    5.4030   -6.6310 O.co2  21  TRP21      -0.2437
@<TRIPOS>BOND
     1    38    39   ar
     2    38    37   ar
     3    40    39   ar
     4    40    41   ar
     5    39    44   ar
     6    41    42   ar
     7    37    36   ar
     8    47    45   ar
     9    44    36   ar
    10    44    43   ar
    11    36    35    1
    12    46    45   ar
    13    45    34    1
    14    42    43   ar
    15    35    34    1
    16    34    33    1
    17    33    31   am
    18     5     4    1
    19     8     7    2
    20    32    31    2
    21    31    26    1
    22     7     2    1
    23     7     9   am
    24     2     1    1
    25     2     3    1
    26     4     3    1
    27     4     6    1
    28    26    27    1
    29    26    25    1
    30    27    29    1
    31    27    28    1
    32     9    10    1
    33    30    29    1
    34    10    15    1
    35    10    11    1
    36    16    15    2
    37    25    23   am
    38    15    17   am
    39    13    12   ar
    40    11    12    1
    41    23    24    2
    42    23    18    1
    43    12    14   ar
    44    17    18    1
    45    18    19    1
    46    19    20    1
    47    19    21    1
    48    21    22    1
