@<TRIPOS>MOLECULE
2-[[2-[2-butyl-4-[(Z)-2-carboxy-3-(6-methoxy-1,3-benzodioxol-5-yl)prop-1-enyl]pyrazol-3-yl]-5-methoxyphenoxy]methyl]benzoic acid
 77 81 0 0 0
SMALL
GASTEIGER

@<TRIPOS>ATOM
      1 O          -6.2555    3.4498   -0.4607 O.3     1  LIG11      -0.4866
      2 O          -7.4869    3.8251  -10.1046 O.3     1  LIG11      -0.4526
      3 O          -8.7897    1.8207  -10.4140 O.3     1  LIG11      -0.4525
      4 O          -6.6855   -0.3076   -6.5822 O.3     1  LIG11      -0.4947
      5 O         -10.5398    2.9351    1.4643 O.3     1  LIG11      -0.4950
      6 O          -7.0048    4.9560   -5.2704 O.co2   1  LIG11      -0.5449
      7 O          -4.7930    4.9994   -5.8582 O.co2   1  LIG11      -0.5449
      8 O          -6.5115    5.5132    2.6152 O.co2   1  LIG11      -0.5446
      9 O          -6.3818    7.5925    1.7559 O.co2   1  LIG11      -0.5446
     10 N          -5.8724   -0.2800   -1.7251 N.ar    1  LIG11      -0.2630
     11 N          -4.7053   -0.4661   -2.3779 N.ar    1  LIG11      -0.1785
     12 C          -6.4266    0.9804   -1.9175 C.ar    1  LIG11       0.0795
     13 C          -6.4797   -1.4035   -1.0257 C.3     1  LIG11       0.0422
     14 C          -5.6717   -2.7111   -0.9875 C.3     1  LIG11      -0.0336
     15 C          -5.6841    1.5155   -2.9645 C.ar    1  LIG11       0.0207
     16 C          -7.5378    1.5264   -1.1139 C.ar    1  LIG11       0.0425
     17 C          -6.5519   -3.9581   -0.8484 C.3     1  LIG11      -0.0542
     18 C          -4.6038    0.6266   -3.1337 C.ar    1  LIG11       0.0571
     19 C          -5.9030    2.7488   -3.6532 C.2     1  LIG11      -0.0459
     20 C          -5.2033    2.0895   -6.0564 C.3     1  LIG11       0.0029
     21 C          -7.3853    2.6845   -0.3287 C.ar    1  LIG11       0.1336
     22 C          -5.6786    3.0085   -4.9605 C.2     1  LIG11      -0.0200
     23 C          -6.1611    1.9273   -7.2317 C.ar    1  LIG11       0.0023
     24 C          -8.7681    0.8552   -1.0522 C.ar    1  LIG11      -0.0456
     25 C          -7.4346   -3.9625    0.3878 C.3     1  LIG11      -0.0652
     26 C          -8.4239    3.1331    0.5004 C.ar    1  LIG11       0.0224
     27 C          -6.8897    0.7308   -7.4574 C.ar    1  LIG11       0.1273
     28 C          -6.3115    3.0004   -8.1357 C.ar    1  LIG11      -0.0092
     29 C          -9.7920    1.2835   -0.1954 C.ar    1  LIG11      -0.0191
     30 C          -7.2100    2.8772   -9.1697 C.ar    1  LIG11       0.1667
     31 C          -9.6210    2.4212    0.5911 C.ar    1  LIG11       0.1236
     32 C          -7.9442    1.7325   -9.3492 C.ar    1  LIG11       0.1697
     33 C          -7.8044    0.6412   -8.5187 C.ar    1  LIG11       0.0258
     34 C          -5.8423    4.4773   -5.3741 C.2     1  LIG11       0.0680
     35 C          -5.4656    3.5146    0.7294 C.3     1  LIG11       0.1153
     36 C          -8.5708    3.1940  -10.8044 C.3     1  LIG11       0.2332
     37 C          -4.4938    4.6689    0.5913 C.ar    1  LIG11      -0.0016
     38 C          -4.7615    5.9827    1.0481 C.ar    1  LIG11       0.0037
     39 C          -3.2965    4.4211   -0.1197 C.ar    1  LIG11      -0.0547
     40 C          -6.7222   -1.6026   -7.1677 C.3     1  LIG11       0.0788
     41 C          -3.8187    6.9944    0.7578 C.ar    1  LIG11      -0.0525
     42 C          -2.3717    5.4355   -0.3672 C.ar    1  LIG11      -0.0614
     43 C         -11.7894    2.2709    1.5608 C.3     1  LIG11       0.0788
     44 C          -2.6361    6.7267    0.0663 C.ar    1  LIG11      -0.0611
     45 C          -5.9955    6.3809    1.8436 C.2     1  LIG11       0.0720
     46 H          -7.4202   -1.5956   -1.5522 H       1  LIG11       0.0509
     47 H          -6.7004   -1.0713   -0.0056 H       1  LIG11       0.0509
     48 H          -4.9484   -2.6671   -0.1644 H       1  LIG11       0.0283
     49 H          -5.0899   -2.8431   -1.9072 H       1  LIG11       0.0283
     50 H          -5.9042   -4.8427   -0.8263 H       1  LIG11       0.0263
     51 H          -7.1839   -4.0571   -1.7398 H       1  LIG11       0.0263
     52 H          -3.7467    0.7351   -3.7837 H       1  LIG11       0.0854
     53 H          -6.2802    3.5745   -3.0458 H       1  LIG11       0.0628
     54 H          -4.9695    1.0967   -5.6671 H       1  LIG11       0.0363
     55 H          -4.2434    2.4534   -6.4467 H       1  LIG11       0.0363
     56 H          -8.9510   -0.0079   -1.6841 H       1  LIG11       0.0626
     57 H          -6.8366   -3.8590    1.2977 H       1  LIG11       0.0230
     58 H          -7.9863   -4.9064    0.4475 H       1  LIG11       0.0230
     59 H          -8.1688   -3.1522    0.3582 H       1  LIG11       0.0230
     60 H          -8.2987    4.0545    1.0700 H       1  LIG11       0.0691
     61 H          -5.7578    3.9268   -8.0054 H       1  LIG11       0.0659
     62 H         -10.7128    0.7124   -0.1771 H       1  LIG11       0.0654
     63 H          -8.4135   -0.2360   -8.6848 H       1  LIG11       0.0692
     64 H          -4.8919    2.5794    0.7975 H       1  LIG11       0.0748
     65 H          -6.0536    3.5537    1.6455 H       1  LIG11       0.0748
     66 H          -8.3535    3.2191  -11.8780 H       1  LIG11       0.1166
     67 H          -9.4906    3.7630  -10.6215 H       1  LIG11       0.1166
     68 H          -3.1015    3.4260   -0.5145 H       1  LIG11       0.0622
     69 H          -6.2431   -2.2993   -6.4729 H       1  LIG11       0.0660
     70 H          -6.1660   -1.6403   -8.1115 H       1  LIG11       0.0660
     71 H          -7.7548   -1.9352   -7.3117 H       1  LIG11       0.0660
     72 H          -4.0325    8.0143    1.0750 H       1  LIG11       0.0624
     73 H          -1.4680    5.2209   -0.9284 H       1  LIG11       0.0618
     74 H         -12.4088    2.8229    2.2747 H       1  LIG11       0.0660
     75 H         -11.6667    1.2535    1.9468 H       1  LIG11       0.0660
     76 H         -12.3141    2.2684    0.5999 H       1  LIG11       0.0660
     77 H          -1.9426    7.5329   -0.1474 H       1  LIG11       0.0618
@<TRIPOS>BOND
     1     1    35    1
     2     1    21    1
     3     2    36    1
     4     2    30    1
     5     3    32    1
     6     3    36    1
     7     4    27    1
     8     4    40    1
     9     5    31    1
    10     5    43    1
    11     6    34   ar
    12     7    34   ar
    13     8    45   ar
    14     9    45   ar
    15    10    11   ar
    16    10    12   ar
    17    10    13    1
    18    11    18   ar
    19    12    15   ar
    20    13    14    1
    21    14    17    1
    22    15    18   ar
    23    15    19    1
    24    16    24   ar
    25    16    21   ar
    26    16    12    1
    27    17    25    1
    28    19    22    2
    29    20    22    1
    30    20    23    1
    31    21    26   ar
    32    22    34    1
    33    23    28   ar
    34    23    27   ar
    35    24    29   ar
    36    26    31   ar
    37    27    33   ar
    38    28    30   ar
    39    29    31   ar
    40    30    32   ar
    41    32    33   ar
    42    35    37    1
    43    37    39   ar
    44    37    38   ar
    45    38    41   ar
    46    38    45    1
    47    39    42   ar
    48    41    44   ar
    49    42    44   ar
    50    13    46    1
    51    13    47    1
    52    14    48    1
    53    14    49    1
    54    17    50    1
    55    17    51    1
    56    18    52    1
    57    19    53    1
    58    20    54    1
    59    20    55    1
    60    24    56    1
    61    25    57    1
    62    25    58    1
    63    25    59    1
    64    26    60    1
    65    28    61    1
    66    29    62    1
    67    33    63    1
    68    35    64    1
    69    35    65    1
    70    36    66    1
    71    36    67    1
    72    39    68    1
    73    40    69    1
    74    40    70    1
    75    40    71    1
    76    41    72    1
    77    42    73    1
    78    43    74    1
    79    43    75    1
    80    43    76    1
    81    44    77    1
@<TRIPOS>MOLECULE
../1EDN/PCA3_17-21.pdb
 47 48 0 0 0
SMALL
GASTEIGER

@<TRIPOS>ATOM
      1  N         -4.2370    0.0490   -1.5930 N.3    17  LEU17      -0.1231
      2  CA        -5.5250   -0.5610   -1.9200 C.3    17  LEU17       0.1693
      3  CB        -5.7360   -1.8160   -1.1010 C.3    17  LEU17       0.0284
      4  CG        -6.9950   -2.5690   -1.5730 C.3    17  LEU17       0.0019
      5  CD1       -6.7530   -3.1800   -3.0080 C.3    17  LEU17       0.0001
      6  CD2       -7.2580   -3.7400   -0.6960 C.3    17  LEU17       0.0001
      7  C         -6.6810    0.4320   -1.9250 C.2    17  LEU17       0.2592
      8  O         -7.3270    0.6200   -2.9560 O.2    17  LEU17      -0.2718
      9  N         -6.9500    1.1080   -0.7900 N.am   18  ASP18      -0.1960
     10  CA        -8.0880    2.0070   -0.5710 C.3    18  ASP18       0.1840
     11  CB        -9.1090    1.3410    0.3760 C.3    18  ASP18       0.1450
     12  CG       -10.1470    2.2990    0.9520 C.2    18  ASP18       0.3671
     13  OD1      -11.0720    2.5310    0.1500 O.co2  18  ASP18      -0.2456
     14  OD2      -10.1960    2.6850    2.1610 O.co2  18  ASP18      -0.2456
     15  C         -7.6280    3.3500    0.0060 C.2    18  ASP18       0.2622
     16  O         -7.9950    4.4650   -0.3580 O.2    18  ASP18      -0.2715
     17  N         -6.8140    3.2050    1.0390 N.am   19  ILE19      -0.1963
     18  CA        -6.1800    4.3790    1.8160 C.3    19  ILE19       0.1727
     19  CB        -5.3140    3.8890    3.0670 C.3    19  ILE19       0.0290
     20  CG2       -4.6600    5.0630    3.8540 C.3    19  ILE19       0.0023
     21  CG1       -6.1440    2.9790    3.9890 C.3    19  ILE19       0.0022
     22  CD1       -5.5170    2.2940    5.2130 C.3    19  ILE19       0.0001
     23  C         -5.2670    5.2520    0.8640 C.2    19  ILE19       0.2616
     24  O         -5.3920    6.4650    0.9090 O.2    19  ILE19      -0.2715
     25  N         -4.4890    4.6060    0.0020 N.am   20  ILE20      -0.1963
     26  CA        -3.9690    5.2910   -1.1850 C.3    20  ILE20       0.1727
     27  CB        -2.4460    5.7340   -1.0120 C.3    20  ILE20       0.0290
     28  CG2       -2.3030    7.0110   -0.1100 C.3    20  ILE20       0.0023
     29  CG1       -1.4300    4.6170   -0.6100 C.3    20  ILE20       0.0022
     30  CD1        0.0800    4.9990   -0.7110 C.3    20  ILE20       0.0001
     31  C         -4.1660    4.3690   -2.4130 C.2    20  ILE20       0.2617
     32  O         -3.9200    3.1710   -2.5010 O.2    20  ILE20      -0.2715
     33  N         -4.6410    5.0460   -3.5090 N.am   21  TRP21      -0.1938
     34  CA        -4.8980    4.4430   -4.8120 C.3    21  TRP21       0.2021
     35  CB        -6.2680    3.7450   -4.8170 C.3    21  TRP21       0.0612
     36  CG        -6.5090    2.9660   -6.0890 C.ar   21  TRP21       0.0007
     37  CD1       -7.0550    3.4090   -7.2190 C.ar   21  TRP21       0.0946
     38  NE1       -7.1560    2.4190   -8.1260 N.ar   21  TRP21      -0.2442
     39  CE2       -6.6880    1.2600   -7.6470 C.ar   21  TRP21       0.0810
     40  CZ2       -6.5320   -0.1050   -8.0600 C.ar   21  TRP21       0.0191
     41  CH2       -5.9630   -1.0770   -7.2340 C.ar   21  TRP21       0.0015
     42  CZ3       -5.4330   -0.7150   -5.9030 C.ar   21  TRP21       0.0001
     43  CE3       -5.5290    0.6400   -5.5430 C.ar   21  TRP21       0.0012
     44  CD2       -6.2440    1.5830   -6.3190 C.ar   21  TRP21       0.0152
     45  C         -4.7460    5.5030   -5.9410 C.2    21  TRP21       0.3845
     46  O         -5.6740    6.3580   -6.0770 O.co2  21  TRP21      -0.2437
     47  OXT       -3.7150    5.4030   -6.6310 O.co2  21  TRP21      -0.2437
@<TRIPOS>BOND
     1    38    39   ar
     2    38    37   ar
     3    40    39   ar
     4    40    41   ar
     5    39    44   ar
     6    41    42   ar
     7    37    36   ar
     8    47    45   ar
     9    44    36   ar
    10    44    43   ar
    11    36    35    1
    12    46    45   ar
    13    45    34    1
    14    42    43   ar
    15    35    34    1
    16    34    33    1
    17    33    31   am
    18     5     4    1
    19     8     7    2
    20    32    31    2
    21    31    26    1
    22     7     2    1
    23     7     9   am
    24     2     1    1
    25     2     3    1
    26     4     3    1
    27     4     6    1
    28    26    27    1
    29    26    25    1
    30    27    29    1
    31    27    28    1
    32     9    10    1
    33    30    29    1
    34    10    15    1
    35    10    11    1
    36    16    15    2
    37    25    23   am
    38    15    17   am
    39    13    12   ar
    40    11    12    1
    41    23    24    2
    42    23    18    1
    43    12    14   ar
    44    17    18    1
    45    18    19    1
    46    19    20    1
    47    19    21    1
    48    21    22    1
