@<TRIPOS>MOLECULE
02228316B
 82 86 0 0 0
SMALL
GASTEIGER

@<TRIPOS>ATOM
      1 C          -5.8761    2.9506    3.2619 C.3     1  LIG11       0.2491
      2 C          -6.8652    2.2719    2.3358 C.2     1  LIG11       0.3556
      3 N          -5.3488    4.0803    2.4549 N.2     1  LIG11      -0.0687
      4 C          -4.7319    2.0517    3.7330 C.3     1  LIG11       0.0059
      5 C          -6.5593    3.4982    4.5191 C.3     1  LIG11       0.0059
      6 N          -6.9442    3.0717    1.2325 N.am    1  LIG11      -0.1529
      7 O          -7.4844    1.2422    2.5529 O.2     1  LIG11      -0.2422
      8 C          -6.0411    4.0631    1.3573 C.2     1  LIG11       0.2916
      9 C          -4.8493    2.0164    5.2555 C.3     1  LIG11      -0.0481
     10 C          -5.5131    3.3359    5.6109 C.3     1  LIG11      -0.0481
     11 C          -7.8910    2.8279    0.1594 C.3     1  LIG11       0.1137
     12 C          -5.8526    5.0863    0.2605 C.3     1  LIG11       0.0509
     13 C          -7.2845    2.1322   -1.0289 C.ar    1  LIG11      -0.0073
     14 C          -4.7878    6.1474    0.5373 C.3     1  LIG11      -0.0424
     15 C          -6.8894    0.8015   -0.9844 C.ar    1  LIG11      -0.0491
     16 C          -7.0800    2.7922   -2.2188 C.ar    1  LIG11      -0.0544
     17 C          -5.2317    7.1911    1.5643 C.3     1  LIG11      -0.0554
     18 C          -6.3601    0.1004   -2.1214 C.ar    1  LIG11      -0.0138
     19 C          -6.5349    2.1146   -3.3197 C.ar    1  LIG11      -0.0533
     20 C          -4.1668    8.2608    1.7535 C.3     1  LIG11      -0.0653
     21 C          -6.2344    0.7482   -3.3969 C.ar    1  LIG11      -0.0106
     22 C          -5.9404   -1.3137   -1.7515 C.3     1  LIG11       0.0732
     23 C          -5.8215    0.1277   -4.7554 C.ar    1  LIG11       0.0091
     24 O          -6.6771   -2.3414   -2.3992 O.3     1  LIG11      -0.3754
     25 C          -6.0719    0.5845   -6.1010 C.ar    1  LIG11       0.1162
     26 C          -5.0942   -1.0922   -4.7318 C.ar    1  LIG11      -0.0521
     27 C          -8.0405   -2.4479   -1.9911 C.3     1  LIG11       0.0453
     28 S          -6.8289    2.1312   -6.6609 S.O2    1  LIG11       0.0741
     29 C          -5.7063   -0.2133   -7.2324 C.ar    1  LIG11      -0.0345
     30 C          -4.7485   -1.8678   -5.8508 C.ar    1  LIG11      -0.0611
     31 C          -8.1976   -2.8739   -0.5392 C.3     1  LIG11      -0.0416
     32 N          -5.4913    3.1722   -6.7847 N.pl3   1  LIG11      -0.1965
     33 O          -7.8162    2.6266   -5.7340 O.2     1  LIG11      -0.1499
     34 O          -7.2368    1.9611   -8.0478 O.2     1  LIG11      -0.1499
     35 C          -5.0724   -1.4361   -7.1111 C.ar    1  LIG11      -0.0599
     36 C          -5.2117    4.1019   -5.7912 C.ar    1  LIG11       0.1837
     37 C          -5.8991    5.3112   -5.5134 C.ar    1  LIG11       0.0342
     38 N          -4.1821    3.9203   -4.9610 N.ar    1  LIG11      -0.0614
     39 C          -5.2609    5.7918   -4.3870 C.ar    1  LIG11       0.1390
     40 C          -7.0665    5.9000   -6.2031 C.3     1  LIG11      -0.0330
     41 O          -4.2329    4.9659   -4.0612 O.2     1  LIG11      -0.3578
     42 C          -5.4750    6.9436   -3.4902 C.3     1  LIG11      -0.0034
     43 H          -4.7789    1.0388    3.3196 H       1  LIG11       0.0316
     44 H          -3.7585    2.4740    3.4542 H       1  LIG11       0.0316
     45 H          -6.8756    4.5424    4.4216 H       1  LIG11       0.0316
     46 H          -7.4477    2.9066    4.7738 H       1  LIG11       0.0316
     47 H          -5.4895    1.1803    5.5611 H       1  LIG11       0.0267
     48 H          -3.8778    1.8957    5.7433 H       1  LIG11       0.0267
     49 H          -4.7855    4.1549    5.5649 H       1  LIG11       0.0267
     50 H          -5.9559    3.3250    6.6108 H       1  LIG11       0.0267
     51 H          -8.7231    2.2204    0.5362 H       1  LIG11       0.0783
     52 H          -8.3188    3.7900   -0.1447 H       1  LIG11       0.0783
     53 H          -5.5499    4.5412   -0.6394 H       1  LIG11       0.0387
     54 H          -6.8157    5.5628    0.0472 H       1  LIG11       0.0387
     55 H          -3.8555    5.6720    0.8656 H       1  LIG11       0.0271
     56 H          -4.5633    6.6599   -0.4064 H       1  LIG11       0.0271
     57 H          -6.9984    0.2753   -0.0339 H       1  LIG11       0.0625
     58 H          -7.3307    3.8444   -2.3325 H       1  LIG11       0.0622
     59 H          -6.1636    7.6655    1.2362 H       1  LIG11       0.0263
     60 H          -5.4334    6.7198    2.5317 H       1  LIG11       0.0263
     61 H          -6.3364    2.7538   -4.1500 H       1  LIG11       0.0624
     62 H          -3.9869    8.8033    0.8197 H       1  LIG11       0.0230
     63 H          -4.4852    8.9841    2.5106 H       1  LIG11       0.0230
     64 H          -3.2203    7.8192    2.0820 H       1  LIG11       0.0230
     65 H          -4.8698   -1.4360   -1.9423 H       1  LIG11       0.0610
     66 H          -5.9799   -1.4782   -0.6682 H       1  LIG11       0.0610
     67 H          -4.7383   -1.5200   -3.8106 H       1  LIG11       0.0624
     68 H          -8.5752   -1.5131   -2.1886 H       1  LIG11       0.0557
     69 H          -8.4927   -3.2141   -2.6288 H       1  LIG11       0.0557
     70 H          -5.9136    0.1211   -8.2488 H       1  LIG11       0.0637
     71 H          -4.2272   -2.8120   -5.7117 H       1  LIG11       0.0618
     72 H          -7.9086   -2.0724    0.1477 H       1  LIG11       0.0252
     73 H          -9.2393   -3.1281   -0.3240 H       1  LIG11       0.0252
     74 H          -7.5635   -3.7372   -0.3141 H       1  LIG11       0.0252
     75 H          -5.4839    3.5404   -7.7339 H       1  LIG11       0.1753
     76 H          -4.8203   -2.0239   -7.9883 H       1  LIG11       0.0618
     77 H          -7.3172    5.3504   -7.1150 H       1  LIG11       0.0280
     78 H          -7.9429    5.8920   -5.5474 H       1  LIG11       0.0280
     79 H          -6.8571    6.9368   -6.4862 H       1  LIG11       0.0280
     80 H          -5.9240    7.7834   -4.0282 H       1  LIG11       0.0309
     81 H          -6.1462    6.6639   -2.6715 H       1  LIG11       0.0309
     82 H          -4.5309    7.2859   -3.0550 H       1  LIG11       0.0309
@<TRIPOS>BOND
     1     1     5    1
     2     1     4    1
     3     1     2    1
     4     1     3    1
     5     2     6   am
     6     2     7    2
     7     3     8    2
     8     4     9    1
     9     5    10    1
    10     6     8    1
    11     6    11    1
    12     8    12    1
    13     9    10    1
    14    11    13    1
    15    12    14    1
    16    13    15   ar
    17    13    16   ar
    18    14    17    1
    19    15    18   ar
    20    16    19   ar
    21    17    20    1
    22    18    21   ar
    23    18    22    1
    24    19    21   ar
    25    21    23    1
    26    22    24    1
    27    23    26   ar
    28    23    25   ar
    29    24    27    1
    30    25    29   ar
    31    25    28    1
    32    26    30   ar
    33    27    31    1
    34    28    34    2
    35    28    33    2
    36    28    32    1
    37    29    35   ar
    38    30    35   ar
    39    32    36    1
    40    36    37   ar
    41    36    38   ar
    42    37    39   ar
    43    37    40    1
    44    38    41   ar
    45    39    41   ar
    46    39    42    1
    47     4    43    1
    48     4    44    1
    49     5    45    1
    50     5    46    1
    51     9    47    1
    52     9    48    1
    53    10    49    1
    54    10    50    1
    55    11    51    1
    56    11    52    1
    57    12    53    1
    58    12    54    1
    59    14    55    1
    60    14    56    1
    61    15    57    1
    62    16    58    1
    63    17    59    1
    64    17    60    1
    65    19    61    1
    66    20    62    1
    67    20    63    1
    68    20    64    1
    69    22    65    1
    70    22    66    1
    71    26    67    1
    72    27    68    1
    73    27    69    1
    74    29    70    1
    75    30    71    1
    76    31    72    1
    77    31    73    1
    78    31    74    1
    79    32    75    1
    80    35    76    1
    81    40    77    1
    82    40    78    1
    83    40    79    1
    84    42    80    1
    85    42    81    1
    86    42    82    1
@<TRIPOS>MOLECULE
../1EDN/PCA3_17-21.pdb
 47 48 0 0 0
SMALL
GASTEIGER

@<TRIPOS>ATOM
      1  N         -4.2370    0.0490   -1.5930 N.3    17  LEU17      -0.1231
      2  CA        -5.5250   -0.5610   -1.9200 C.3    17  LEU17       0.1693
      3  CB        -5.7360   -1.8160   -1.1010 C.3    17  LEU17       0.0284
      4  CG        -6.9950   -2.5690   -1.5730 C.3    17  LEU17       0.0019
      5  CD1       -6.7530   -3.1800   -3.0080 C.3    17  LEU17       0.0001
      6  CD2       -7.2580   -3.7400   -0.6960 C.3    17  LEU17       0.0001
      7  C         -6.6810    0.4320   -1.9250 C.2    17  LEU17       0.2592
      8  O         -7.3270    0.6200   -2.9560 O.2    17  LEU17      -0.2718
      9  N         -6.9500    1.1080   -0.7900 N.am   18  ASP18      -0.1960
     10  CA        -8.0880    2.0070   -0.5710 C.3    18  ASP18       0.1840
     11  CB        -9.1090    1.3410    0.3760 C.3    18  ASP18       0.1450
     12  CG       -10.1470    2.2990    0.9520 C.2    18  ASP18       0.3671
     13  OD1      -11.0720    2.5310    0.1500 O.co2  18  ASP18      -0.2456
     14  OD2      -10.1960    2.6850    2.1610 O.co2  18  ASP18      -0.2456
     15  C         -7.6280    3.3500    0.0060 C.2    18  ASP18       0.2622
     16  O         -7.9950    4.4650   -0.3580 O.2    18  ASP18      -0.2715
     17  N         -6.8140    3.2050    1.0390 N.am   19  ILE19      -0.1963
     18  CA        -6.1800    4.3790    1.8160 C.3    19  ILE19       0.1727
     19  CB        -5.3140    3.8890    3.0670 C.3    19  ILE19       0.0290
     20  CG2       -4.6600    5.0630    3.8540 C.3    19  ILE19       0.0023
     21  CG1       -6.1440    2.9790    3.9890 C.3    19  ILE19       0.0022
     22  CD1       -5.5170    2.2940    5.2130 C.3    19  ILE19       0.0001
     23  C         -5.2670    5.2520    0.8640 C.2    19  ILE19       0.2616
     24  O         -5.3920    6.4650    0.9090 O.2    19  ILE19      -0.2715
     25  N         -4.4890    4.6060    0.0020 N.am   20  ILE20      -0.1963
     26  CA        -3.9690    5.2910   -1.1850 C.3    20  ILE20       0.1727
     27  CB        -2.4460    5.7340   -1.0120 C.3    20  ILE20       0.0290
     28  CG2       -2.3030    7.0110   -0.1100 C.3    20  ILE20       0.0023
     29  CG1       -1.4300    4.6170   -0.6100 C.3    20  ILE20       0.0022
     30  CD1        0.0800    4.9990   -0.7110 C.3    20  ILE20       0.0001
     31  C         -4.1660    4.3690   -2.4130 C.2    20  ILE20       0.2617
     32  O         -3.9200    3.1710   -2.5010 O.2    20  ILE20      -0.2715
     33  N         -4.6410    5.0460   -3.5090 N.am   21  TRP21      -0.1938
     34  CA        -4.8980    4.4430   -4.8120 C.3    21  TRP21       0.2021
     35  CB        -6.2680    3.7450   -4.8170 C.3    21  TRP21       0.0612
     36  CG        -6.5090    2.9660   -6.0890 C.ar   21  TRP21       0.0007
     37  CD1       -7.0550    3.4090   -7.2190 C.ar   21  TRP21       0.0946
     38  NE1       -7.1560    2.4190   -8.1260 N.ar   21  TRP21      -0.2442
     39  CE2       -6.6880    1.2600   -7.6470 C.ar   21  TRP21       0.0810
     40  CZ2       -6.5320   -0.1050   -8.0600 C.ar   21  TRP21       0.0191
     41  CH2       -5.9630   -1.0770   -7.2340 C.ar   21  TRP21       0.0015
     42  CZ3       -5.4330   -0.7150   -5.9030 C.ar   21  TRP21       0.0001
     43  CE3       -5.5290    0.6400   -5.5430 C.ar   21  TRP21       0.0012
     44  CD2       -6.2440    1.5830   -6.3190 C.ar   21  TRP21       0.0152
     45  C         -4.7460    5.5030   -5.9410 C.2    21  TRP21       0.3845
     46  O         -5.6740    6.3580   -6.0770 O.co2  21  TRP21      -0.2437
     47  OXT       -3.7150    5.4030   -6.6310 O.co2  21  TRP21      -0.2437
@<TRIPOS>BOND
     1    38    39   ar
     2    38    37   ar
     3    40    39   ar
     4    40    41   ar
     5    39    44   ar
     6    41    42   ar
     7    37    36   ar
     8    47    45   ar
     9    44    36   ar
    10    44    43   ar
    11    36    35    1
    12    46    45   ar
    13    45    34    1
    14    42    43   ar
    15    35    34    1
    16    34    33    1
    17    33    31   am
    18     5     4    1
    19     8     7    2
    20    32    31    2
    21    31    26    1
    22     7     2    1
    23     7     9   am
    24     2     1    1
    25     2     3    1
    26     4     3    1
    27     4     6    1
    28    26    27    1
    29    26    25    1
    30    27    29    1
    31    27    28    1
    32     9    10    1
    33    30    29    1
    34    10    15    1
    35    10    11    1
    36    16    15    2
    37    25    23   am
    38    15    17   am
    39    13    12   ar
    40    11    12    1
    41    23    24    2
    42    23    18    1
    43    12    14   ar
    44    17    18    1
    45    18    19    1
    46    19    20    1
    47    19    21    1
    48    21    22    1
