@<TRIPOS>MOLECULE
*****
 67 70 0 0 0
SMALL
GASTEIGER

@<TRIPOS>ATOM
      1 C           0.3606  -20.6608    2.4047 C.ar    1  LIG11       0.0483
      2 C           1.2725  -21.2960    3.2136 C.ar    1  LIG11       0.0543
      3 C           2.4729  -20.6445    3.3790 C.ar    1  LIG11       0.0483
      4 N           2.7637  -19.4549    2.8072 N.ar    1  LIG11      -0.2022
      5 N           0.6012  -19.4803    1.7962 N.ar    1  LIG11      -0.2022
      6 C           0.7004  -17.5143   -3.1954 C.ar    1  LIG11      -0.0504
      7 C           1.7543  -18.3084   -2.7446 C.ar    1  LIG11      -0.0583
      8 C           2.9949  -17.7344   -2.4397 C.ar    1  LIG11      -0.0535
      9 C           3.2089  -16.3464   -2.5226 C.ar    1  LIG11      -0.0094
     10 C           2.1621  -15.5808   -3.0693 C.ar    1  LIG11      -0.0535
     11 C           0.9318  -16.1557   -3.4127 C.ar    1  LIG11      -0.0583
     12 C           2.7551  -15.2612   -7.4966 C.ar    1  LIG11      -0.0561
     13 C           3.6717  -14.6495   -6.6377 C.ar    1  LIG11      -0.0348
     14 C           4.6249  -15.4301   -5.9851 C.ar    1  LIG11       0.1086
     15 C           4.6888  -16.8011   -6.2110 C.ar    1  LIG11      -0.0348
     16 C           3.7668  -17.4016   -7.0712 C.ar    1  LIG11      -0.0561
     17 C           1.7403  -17.3176   -8.6652 C.3     1  LIG11       0.0132
     18 C           2.7636  -16.6544   -7.7170 C.ar    1  LIG11      -0.0394
     19 C           2.2420  -17.1356  -10.1120 C.3     1  LIG11      -0.0537
     20 C           1.4927  -18.8303   -8.3647 C.3     1  LIG11       0.0533
     21 C           0.3524  -16.6379   -8.5374 C.3     1  LIG11      -0.0537
     22 O           2.5664  -19.6890   -8.7423 O.3     1  LIG11      -0.3942
     23 S           5.7996  -14.6544   -4.9076 S.O2    1  LIG11       0.0735
     24 O           6.3289  -13.5160   -5.6292 O.2     1  LIG11      -0.1499
     25 O           6.6640  -15.6815   -4.3625 O.2     1  LIG11      -0.1499
     26 N           4.7952  -14.0139   -3.6983 N.pl3   1  LIG11      -0.1988
     27 C           4.3950  -15.6897   -1.9106 C.ar    1  LIG11       0.0847
     28 C           4.8889  -16.0415   -0.6511 C.ar    1  LIG11       0.2276
     29 N           5.8484  -15.3731    0.0231 N.ar    1  LIG11      -0.2008
     30 C           6.3407  -14.2909   -0.5812 C.ar    1  LIG11       0.1219
     31 N           5.9707  -13.8308   -1.7763 N.ar    1  LIG11      -0.2186
     32 C           5.0300  -14.5565   -2.4071 C.ar    1  LIG11       0.1524
     33 C          -0.6675  -18.0896   -3.4077 C.3     1  LIG11      -0.0397
     34 O           4.4037  -17.1932   -0.0712 O.3     1  LIG11      -0.4724
     35 C           4.4464  -17.2882    1.3533 C.3     1  LIG11       0.1252
     36 C           3.0734  -16.9389    1.9319 C.3     1  LIG11       0.1267
     37 O           2.0249  -17.7384    1.3769 O.3     1  LIG11      -0.4590
     38 C           1.8006  -18.9249    2.0325 C.ar    1  LIG11       0.3180
     39 BR          0.9041  -22.9408    4.0381 Br      1  LIG11      -0.0472
     40 H          -0.6200  -21.0837    2.2078 H       1  LIG11       0.0843
     41 H           3.2664  -21.0633    3.9914 H       1  LIG11       0.0843
     42 H           1.6106  -19.3731   -2.5743 H       1  LIG11       0.0620
     43 H           3.7728  -18.3938   -2.0584 H       1  LIG11       0.0624
     44 H           2.2590  -14.5028   -3.1797 H       1  LIG11       0.0624
     45 H           0.1370  -15.5191   -3.7954 H       1  LIG11       0.0620
     46 H           2.0359  -14.6178   -7.9973 H       1  LIG11       0.0621
     47 H           3.6398  -13.5726   -6.4892 H       1  LIG11       0.0637
     48 H           5.4495  -17.4145   -5.7318 H       1  LIG11       0.0637
     49 H           3.8610  -18.4737   -7.2237 H       1  LIG11       0.0621
     50 H           2.3111  -16.0754  -10.3836 H       1  LIG11       0.0239
     51 H           1.5625  -17.6145  -10.8261 H       1  LIG11       0.0239
     52 H           3.2396  -17.5665  -10.2543 H       1  LIG11       0.0239
     53 H           0.6095  -19.1916   -8.9040 H       1  LIG11       0.0566
     54 H           1.2992  -18.9844   -7.2966 H       1  LIG11       0.0566
     55 H           0.0085  -16.6324   -7.4964 H       1  LIG11       0.0239
     56 H          -0.4018  -17.1626   -9.1359 H       1  LIG11       0.0239
     57 H           0.3572  -15.6034   -8.8971 H       1  LIG11       0.0239
     58 H           2.6557  -19.6549   -9.7089 H       1  LIG11       0.2094
     59 H           4.9884  -13.0117   -3.6790 H       1  LIG11       0.1753
     60 H           7.1092  -13.7365   -0.0538 H       1  LIG11       0.1049
     61 H          -0.7301  -19.1211   -3.0440 H       1  LIG11       0.0278
     62 H          -0.9286  -18.0795   -4.4701 H       1  LIG11       0.0278
     63 H          -1.4072  -17.5050   -2.8490 H       1  LIG11       0.0278
     64 H           5.2220  -16.6708    1.8183 H       1  LIG11       0.0731
     65 H           4.7036  -18.3281    1.5754 H       1  LIG11       0.0731
     66 H           2.8310  -15.9060    1.6564 H       1  LIG11       0.0732
     67 H           3.0759  -16.9754    3.0286 H       1  LIG11       0.0732
@<TRIPOS>BOND
     1     1     2   ar
     2     2     3   ar
     3     2    39    1
     4     3     4   ar
     5     4    38   ar
     6     5     1   ar
     7     6     7   ar
     8     6    33    1
     9     7     8   ar
    10     8     9   ar
    11     9    10   ar
    12    10    11   ar
    13    11     6   ar
    14    12    13   ar
    15    13    14   ar
    16    14    15   ar
    17    15    16   ar
    18    16    18   ar
    19    17    18    1
    20    17    21    1
    21    17    20    1
    22    17    19    1
    23    18    12   ar
    24    20    22    1
    25    23    26    1
    26    23    25    2
    27    23    24    2
    28    23    14    1
    29    26    32    1
    30    27    28   ar
    31    27     9    1
    32    28    29   ar
    33    29    30   ar
    34    30    31   ar
    35    31    32   ar
    36    32    27   ar
    37    34    35    1
    38    34    28    1
    39    35    36    1
    40    36    37    1
    41    37    38    1
    42    38     5   ar
    43     1    40    1
    44     3    41    1
    45     7    42    1
    46     8    43    1
    47    10    44    1
    48    11    45    1
    49    12    46    1
    50    13    47    1
    51    15    48    1
    52    16    49    1
    53    19    50    1
    54    19    51    1
    55    19    52    1
    56    20    53    1
    57    20    54    1
    58    21    55    1
    59    21    56    1
    60    21    57    1
    61    22    58    1
    62    26    59    1
    63    30    60    1
    64    33    61    1
    65    33    62    1
    66    33    63    1
    67    35    64    1
    68    35    65    1
    69    36    66    1
    70    36    67    1
@<TRIPOS>MOLECULE
../1EDN/XRAY_17-21.pdb
 47 48 0 0 0
SMALL
GASTEIGER

@<TRIPOS>ATOM
      1  N          6.4500  -19.7300   -2.8460 N.3    17  LEU17      -0.1231
      2  CA         5.2640  -20.1680   -2.1160 C.3    17  LEU17       0.1693
      3  C          4.7010  -18.8060   -1.6720 C.2    17  LEU17       0.2592
      4  O          4.3760  -17.9800   -2.5270 O.2    17  LEU17      -0.2718
      5  CB         5.6570  -21.0170   -0.8850 C.3    17  LEU17       0.0284
      6  CG         5.4050  -22.5400   -0.8470 C.3    17  LEU17       0.0019
      7  CD1        6.1110  -23.2140    0.3150 C.3    17  LEU17       0.0001
      8  CD2        3.9240  -22.7940   -0.7690 C.3    17  LEU17       0.0001
      9  N          4.7270  -18.4910   -0.3800 N.am   18  ASP18      -0.1962
     10  CA         4.1720  -17.2010    0.0630 C.3    18  ASP18       0.1783
     11  C          4.7750  -15.8130   -0.3500 C.2    18  ASP18       0.2620
     12  O          4.1570  -14.7710   -0.0750 O.2    18  ASP18      -0.2715
     13  CB         3.8720  -17.2370    1.5730 C.3    18  ASP18       0.0728
     14  CG         2.4440  -17.7210    1.8880 C.2    18  ASP18       0.0526
     15  OD1        1.8320  -18.4410    1.0660 O.co2  18  ASP18      -0.5491
     16  OD2        1.9260  -17.3730    2.9700 O.co2  18  ASP18      -0.5491
     17  N          5.9570  -15.7420   -0.9630 N.am   19  ILE19      -0.1963
     18  CA         6.4450  -14.4030   -1.3510 C.3    19  ILE19       0.1727
     19  C          5.5760  -13.9960   -2.5290 C.2    19  ILE19       0.2616
     20  O          4.8370  -13.0080   -2.4770 O.2    19  ILE19      -0.2715
     21  CB         7.9140  -14.3690   -1.8400 C.3    19  ILE19       0.0290
     22  CG1        8.8760  -14.8240   -0.7490 C.3    19  ILE19       0.0022
     23  CG2        8.2810  -12.9320   -2.2380 C.3    19  ILE19       0.0023
     24  CD1        9.3280  -13.7050    0.1860 C.3    19  ILE19       0.0001
     25  N          5.7170  -14.7750   -3.5990 N.am   20  ILE20      -0.1963
     26  CA         4.9770  -14.6140   -4.8450 C.3    20  ILE20       0.1727
     27  C          4.7560  -16.0550   -5.2510 C.2    20  ILE20       0.2615
     28  O          5.5820  -16.9240   -4.9410 O.2    20  ILE20      -0.2715
     29  CB         5.8140  -13.8870   -5.9550 C.3    20  ILE20       0.0290
     30  CG1        5.9530  -12.3980   -5.6400 C.3    20  ILE20       0.0022
     31  CG2        5.1640  -14.0490   -7.3150 C.3    20  ILE20       0.0023
     32  CD1        6.8340  -11.6390   -6.6010 C.3    20  ILE20       0.0001
     33  N          3.6520  -16.3070   -5.9350 N.am   21  TRP21      -0.1988
     34  CA         3.3300  -17.6370   -6.4010 C.3    21  TRP21       0.1456
     35  C          2.5650  -17.6270   -7.7180 C.2    21  TRP21       0.1166
     36  O          1.8980  -18.6320   -8.0750 O.co2  21  TRP21      -0.3065
     37  CB         2.6690  -18.5180   -5.3120 C.3    21  TRP21       0.0562
     38  CG         1.5690  -17.9980   -4.3600 C.ar   21  TRP21       0.0005
     39  CD1        0.7990  -18.7930   -3.5490 C.ar   21  TRP21       0.0946
     40  CD2        1.2480  -16.6350   -3.9890 C.ar   21  TRP21       0.0152
     41  CE2        0.3020  -16.7070   -2.9250 C.ar   21  TRP21       0.0810
     42  CE3        1.6680  -15.3700   -4.4360 C.ar   21  TRP21       0.0012
     43  NE1        0.0520  -18.0350   -2.6840 N.ar   21  TRP21      -0.2442
     44  CZ2       -0.2230  -15.5590   -2.2950 C.ar   21  TRP21       0.0191
     45  CZ3        1.1420  -14.2140   -3.8060 C.ar   21  TRP21       0.0001
     46  CH2        0.2070  -14.3240   -2.7450 C.ar   21  TRP21       0.0015
     47  OXT        2.7400  -16.6140   -8.4280 O.co2  21  TRP21      -0.8460
@<TRIPOS>BOND
     1    47    35   ar
     2    36    35   ar
     3    35    34    1
     4    31    29    1
     5    32    30    1
     6    34    33    1
     7    34    37    1
     8    29    30    1
     9    29    26    1
    10    33    27   am
    11    37    38    1
    12    27    28    2
    13    27    26    1
    14    26    25    1
    15    42    40   ar
    16    42    45   ar
    17    38    40   ar
    18    38    39   ar
    19    40    41   ar
    20    45    46   ar
    21    25    19   am
    22    39    43   ar
    23    41    43   ar
    24    41    44   ar
    25     1     2    1
    26    46    44   ar
    27    19    20    2
    28    19    18    1
    29     4     3    2
    30    23    21    1
    31     2     3    1
    32     2     5    1
    33    21    18    1
    34    21    22    1
    35     3     9   am
    36    18    17    1
    37    17    11   am
    38     5     6    1
    39     6     8    1
    40     6     7    1
    41    22    24    1
    42     9    10    1
    43    11    12    2
    44    11    10    1
    45    10    13    1
    46    15    14   ar
    47    13    14    1
    48    14    16   ar
