@<TRIPOS>MOLECULE
9912992
 55 58 0 0 0
SMALL
GASTEIGER

@<TRIPOS>ATOM
      1 S           4.7653  -17.7524   -2.2601 S.O2    1  LIG11       0.0908
      2 O           2.2885  -18.1001   -5.1947 O.3     1  LIG11      -0.4435
      3 O           3.0974  -17.3483   -7.6138 O.3     1  LIG11      -0.4771
      4 O           4.3904  -19.0763   -2.7246 O.2     1  LIG11      -0.1484
      5 O           6.0965  -17.2210   -2.4780 O.2     1  LIG11      -0.1484
      6 O           0.7079  -15.8300   -4.4509 O.3     1  LIG11      -0.4914
      7 N           3.5972  -16.6699   -2.8536 N.pl3   1  LIG11      -0.1950
      8 N           4.5658  -15.2958   -4.3988 N.ar    1  LIG11      -0.2073
      9 N           4.4250  -15.6150   -6.7474 N.ar    1  LIG11      -0.1899
     10 N           3.7473  -18.6417    0.0511 N.ar    1  LIG11      -0.2351
     11 N           7.0695  -11.3288   -6.3080 N.ar    1  LIG11      -0.2632
     12 C           3.7563  -16.3552   -4.2338 C.ar    1  LIG11       0.1882
     13 C           3.1695  -17.0577   -5.2703 C.ar    1  LIG11       0.2307
     14 C           4.4008  -17.5937   -0.5089 C.ar    1  LIG11       0.1969
     15 C           3.5934  -16.6537   -6.5231 C.ar    1  LIG11       0.2638
     16 C           4.8567  -14.9537   -5.6629 C.ar    1  LIG11       0.1659
     17 C           4.6525  -16.3819    0.1203 C.ar    1  LIG11      -0.0160
     18 C           5.6387  -13.7263   -5.8768 C.ar    1  LIG11       0.0222
     19 C           1.3120  -18.1255   -4.2239 C.ar    1  LIG11       0.1702
     20 C           3.5416  -17.2930    2.0562 C.ar    1  LIG11      -0.0322
     21 C           4.2094  -16.2361    1.4302 C.ar    1  LIG11      -0.0541
     22 C           3.3535  -18.4692    1.3308 C.ar    1  LIG11       0.0327
     23 C           0.5352  -17.0285   -3.8110 C.ar    1  LIG11       0.1621
     24 C           1.1432  -19.3721   -3.6115 C.ar    1  LIG11      -0.0157
     25 C           3.0529  -17.1819    3.4666 C.3     1  LIG11      -0.0383
     26 C           5.6893  -12.7182   -4.9026 C.ar    1  LIG11      -0.0329
     27 C           6.3371  -13.4975   -7.0705 C.ar    1  LIG11      -0.0329
     28 C          -0.3807  -17.1975   -2.7654 C.ar    1  LIG11      -0.0163
     29 C           0.2420  -19.5247   -2.5611 C.ar    1  LIG11      -0.0581
     30 C          -0.5150  -18.4371   -2.1355 C.ar    1  LIG11      -0.0581
     31 C           6.3994  -11.5567   -5.1608 C.ar    1  LIG11       0.0282
     32 C           7.0279  -12.3072   -7.2351 C.ar    1  LIG11       0.0282
     33 C           3.7703  -17.0505   -8.8322 C.3     1  LIG11       0.0805
     34 C           0.6464  -14.6798   -3.6069 C.3     1  LIG11       0.0790
     35 H           2.7043  -17.1154   -2.6637 H       1  LIG11       0.1754
     36 H           5.1472  -15.5696   -0.4032 H       1  LIG11       0.0653
     37 H           4.3761  -15.2967    1.9505 H       1  LIG11       0.0622
     38 H           2.8552  -19.3285    1.7743 H       1  LIG11       0.0833
     39 H           1.7466  -20.2190   -3.9328 H       1  LIG11       0.0655
     40 H           3.1511  -16.1582    3.8433 H       1  LIG11       0.0278
     41 H           3.6305  -17.8429    4.1197 H       1  LIG11       0.0278
     42 H           1.9936  -17.4533    3.5238 H       1  LIG11       0.0278
     43 H           5.1679  -12.8278   -3.9562 H       1  LIG11       0.0640
     44 H           6.3454  -14.2371   -7.8657 H       1  LIG11       0.0640
     45 H          -1.0095  -16.3782   -2.4292 H       1  LIG11       0.0655
     46 H           0.1364  -20.4922   -2.0757 H       1  LIG11       0.0619
     47 H          -1.2208  -18.5578   -1.3162 H       1  LIG11       0.0619
     48 H           6.4429  -10.7546   -4.4304 H       1  LIG11       0.0830
     49 H           7.5811  -12.1035   -8.1478 H       1  LIG11       0.0830
     50 H           3.3505  -17.6942   -9.6116 H       1  LIG11       0.0660
     51 H           4.8408  -17.2736   -8.7578 H       1  LIG11       0.0660
     52 H           3.6061  -16.0108   -9.1351 H       1  LIG11       0.0660
     53 H           1.1232  -13.8505   -4.1365 H       1  LIG11       0.0660
     54 H           1.1933  -14.8322   -2.6687 H       1  LIG11       0.0660
     55 H          -0.3924  -14.4007   -3.4076 H       1  LIG11       0.0660
@<TRIPOS>BOND
     1     1     4    2
     2     1     5    2
     3     1     7    1
     4     1    14    1
     5     2    13    1
     6     2    19    1
     7     3    15    1
     8     3    33    1
     9     6    23    1
    10     6    34    1
    11     7    12    1
    12     8    12   ar
    13     8    16   ar
    14     9    15   ar
    15     9    16   ar
    16    10    14   ar
    17    10    22   ar
    18    11    31   ar
    19    11    32   ar
    20    12    13   ar
    21    13    15   ar
    22    14    17   ar
    23    16    18    1
    24    17    21   ar
    25    18    26   ar
    26    18    27   ar
    27    19    23   ar
    28    19    24   ar
    29    20    21   ar
    30    20    22   ar
    31    20    25    1
    32    23    28   ar
    33    24    29   ar
    34    26    31   ar
    35    27    32   ar
    36    28    30   ar
    37    29    30   ar
    38     7    35    1
    39    17    36    1
    40    21    37    1
    41    22    38    1
    42    24    39    1
    43    25    40    1
    44    25    41    1
    45    25    42    1
    46    26    43    1
    47    27    44    1
    48    28    45    1
    49    29    46    1
    50    30    47    1
    51    31    48    1
    52    32    49    1
    53    33    50    1
    54    33    51    1
    55    33    52    1
    56    34    53    1
    57    34    54    1
    58    34    55    1
@<TRIPOS>MOLECULE
../1EDN/XRAY_17-21.pdb
 47 48 0 0 0
SMALL
GASTEIGER

@<TRIPOS>ATOM
      1  N          6.4500  -19.7300   -2.8460 N.3    17  LEU17      -0.1231
      2  CA         5.2640  -20.1680   -2.1160 C.3    17  LEU17       0.1693
      3  C          4.7010  -18.8060   -1.6720 C.2    17  LEU17       0.2592
      4  O          4.3760  -17.9800   -2.5270 O.2    17  LEU17      -0.2718
      5  CB         5.6570  -21.0170   -0.8850 C.3    17  LEU17       0.0284
      6  CG         5.4050  -22.5400   -0.8470 C.3    17  LEU17       0.0019
      7  CD1        6.1110  -23.2140    0.3150 C.3    17  LEU17       0.0001
      8  CD2        3.9240  -22.7940   -0.7690 C.3    17  LEU17       0.0001
      9  N          4.7270  -18.4910   -0.3800 N.am   18  ASP18      -0.1962
     10  CA         4.1720  -17.2010    0.0630 C.3    18  ASP18       0.1783
     11  C          4.7750  -15.8130   -0.3500 C.2    18  ASP18       0.2620
     12  O          4.1570  -14.7710   -0.0750 O.2    18  ASP18      -0.2715
     13  CB         3.8720  -17.2370    1.5730 C.3    18  ASP18       0.0728
     14  CG         2.4440  -17.7210    1.8880 C.2    18  ASP18       0.0526
     15  OD1        1.8320  -18.4410    1.0660 O.co2  18  ASP18      -0.5491
     16  OD2        1.9260  -17.3730    2.9700 O.co2  18  ASP18      -0.5491
     17  N          5.9570  -15.7420   -0.9630 N.am   19  ILE19      -0.1963
     18  CA         6.4450  -14.4030   -1.3510 C.3    19  ILE19       0.1727
     19  C          5.5760  -13.9960   -2.5290 C.2    19  ILE19       0.2616
     20  O          4.8370  -13.0080   -2.4770 O.2    19  ILE19      -0.2715
     21  CB         7.9140  -14.3690   -1.8400 C.3    19  ILE19       0.0290
     22  CG1        8.8760  -14.8240   -0.7490 C.3    19  ILE19       0.0022
     23  CG2        8.2810  -12.9320   -2.2380 C.3    19  ILE19       0.0023
     24  CD1        9.3280  -13.7050    0.1860 C.3    19  ILE19       0.0001
     25  N          5.7170  -14.7750   -3.5990 N.am   20  ILE20      -0.1963
     26  CA         4.9770  -14.6140   -4.8450 C.3    20  ILE20       0.1727
     27  C          4.7560  -16.0550   -5.2510 C.2    20  ILE20       0.2615
     28  O          5.5820  -16.9240   -4.9410 O.2    20  ILE20      -0.2715
     29  CB         5.8140  -13.8870   -5.9550 C.3    20  ILE20       0.0290
     30  CG1        5.9530  -12.3980   -5.6400 C.3    20  ILE20       0.0022
     31  CG2        5.1640  -14.0490   -7.3150 C.3    20  ILE20       0.0023
     32  CD1        6.8340  -11.6390   -6.6010 C.3    20  ILE20       0.0001
     33  N          3.6520  -16.3070   -5.9350 N.am   21  TRP21      -0.1988
     34  CA         3.3300  -17.6370   -6.4010 C.3    21  TRP21       0.1456
     35  C          2.5650  -17.6270   -7.7180 C.2    21  TRP21       0.1166
     36  O          1.8980  -18.6320   -8.0750 O.co2  21  TRP21      -0.3065
     37  CB         2.6690  -18.5180   -5.3120 C.3    21  TRP21       0.0562
     38  CG         1.5690  -17.9980   -4.3600 C.ar   21  TRP21       0.0005
     39  CD1        0.7990  -18.7930   -3.5490 C.ar   21  TRP21       0.0946
     40  CD2        1.2480  -16.6350   -3.9890 C.ar   21  TRP21       0.0152
     41  CE2        0.3020  -16.7070   -2.9250 C.ar   21  TRP21       0.0810
     42  CE3        1.6680  -15.3700   -4.4360 C.ar   21  TRP21       0.0012
     43  NE1        0.0520  -18.0350   -2.6840 N.ar   21  TRP21      -0.2442
     44  CZ2       -0.2230  -15.5590   -2.2950 C.ar   21  TRP21       0.0191
     45  CZ3        1.1420  -14.2140   -3.8060 C.ar   21  TRP21       0.0001
     46  CH2        0.2070  -14.3240   -2.7450 C.ar   21  TRP21       0.0015
     47  OXT        2.7400  -16.6140   -8.4280 O.co2  21  TRP21      -0.8460
@<TRIPOS>BOND
     1    47    35   ar
     2    36    35   ar
     3    35    34    1
     4    31    29    1
     5    32    30    1
     6    34    33    1
     7    34    37    1
     8    29    30    1
     9    29    26    1
    10    33    27   am
    11    37    38    1
    12    27    28    2
    13    27    26    1
    14    26    25    1
    15    42    40   ar
    16    42    45   ar
    17    38    40   ar
    18    38    39   ar
    19    40    41   ar
    20    45    46   ar
    21    25    19   am
    22    39    43   ar
    23    41    43   ar
    24    41    44   ar
    25     1     2    1
    26    46    44   ar
    27    19    20    2
    28    19    18    1
    29     4     3    2
    30    23    21    1
    31     2     3    1
    32     2     5    1
    33    21    18    1
    34    21    22    1
    35     3     9   am
    36    18    17    1
    37    17    11   am
    38     5     6    1
    39     6     8    1
    40     6     7    1
    41    22    24    1
    42     9    10    1
    43    11    12    2
    44    11    10    1
    45    10    13    1
    46    15    14   ar
    47    13    14    1
    48    14    16   ar
