@<TRIPOS>MOLECULE
177236
 51 53 0 0 0
SMALL
GASTEIGER

@<TRIPOS>ATOM
      1 O           2.6670  -16.9950   -6.4004 O.3     1  LIG11      -0.3632
      2 O           3.3196  -16.9759   -2.6650 O.3     1  LIG11      -0.4494
      3 O           2.0153  -19.5690   -4.6658 O.co2   1  LIG11      -0.5459
      4 O           0.9966  -18.3116   -3.0683 O.co2   1  LIG11      -0.5459
      5 O           5.4438  -21.0430   -1.6623 O.3     1  LIG11      -0.4794
      6 O           5.1307  -17.6581    1.5569 O.3     1  LIG11      -0.4794
      7 N           4.3537  -19.0330   -2.1963 N.ar    1  LIG11      -0.1594
      8 N           4.1599  -17.3207   -0.5655 N.ar    1  LIG11      -0.1594
      9 C           2.8521  -16.4282   -5.0626 C.3     1  LIG11       0.1609
     10 C           3.0865  -17.5440   -3.9860 C.3     1  LIG11       0.1791
     11 C           1.5784  -15.5874   -4.7563 C.ar    1  LIG11      -0.0075
     12 C           4.0504  -15.4275   -5.2519 C.ar    1  LIG11      -0.0075
     13 C           1.5427  -14.6957   -3.6666 C.ar    1  LIG11      -0.0554
     14 C           5.1552  -15.3491   -4.3886 C.ar    1  LIG11      -0.0554
     15 C           0.4266  -15.6752   -5.5607 C.ar    1  LIG11      -0.0554
     16 C           4.0363  -14.5462   -6.3578 C.ar    1  LIG11      -0.0554
     17 C           1.9044  -18.5481   -3.9161 C.2     1  LIG11       0.0856
     18 C           3.6574  -17.9022   -6.8625 C.3     1  LIG11       0.0382
     19 C           0.4120  -13.9182   -3.4013 C.ar    1  LIG11      -0.0614
     20 C           6.1894  -14.4322   -4.6119 C.ar    1  LIG11      -0.0614
     21 C          -0.7021  -14.8921   -5.3002 C.ar    1  LIG11      -0.0614
     22 C           5.0768  -13.6443   -6.5923 C.ar    1  LIG11      -0.0614
     23 C          -0.7086  -14.0121   -4.2218 C.ar    1  LIG11      -0.0617
     24 C           6.1533  -13.5832   -5.7158 C.ar    1  LIG11      -0.0617
     25 C           3.9122  -17.8432   -1.7739 C.ar    1  LIG11       0.3249
     26 C           4.9951  -19.7866   -1.2987 C.ar    1  LIG11       0.2240
     27 C           4.8304  -18.1129    0.2841 C.ar    1  LIG11       0.2240
     28 C           5.2846  -19.3703   -0.0272 C.ar    1  LIG11       0.0617
     29 C           4.8751  -21.4781   -2.8995 C.3     1  LIG11       0.0804
     30 C           4.5333  -16.3962    1.8422 C.3     1  LIG11       0.0804
     31 H           3.9858  -18.0923   -4.2917 H       1  LIG11       0.0834
     32 H           2.3995  -14.6117   -3.0027 H       1  LIG11       0.0621
     33 H           5.2446  -15.9895   -3.5198 H       1  LIG11       0.0621
     34 H           0.3948  -16.3748   -6.3926 H       1  LIG11       0.0621
     35 H           3.1976  -14.5775   -7.0535 H       1  LIG11       0.0621
     36 H           3.4802  -18.0681   -7.9293 H       1  LIG11       0.0524
     37 H           4.6692  -17.5038   -6.7506 H       1  LIG11       0.0524
     38 H           3.5868  -18.8721   -6.3704 H       1  LIG11       0.0524
     39 H           0.4066  -13.2544   -2.5424 H       1  LIG11       0.0618
     40 H           7.0238  -14.3878   -3.9162 H       1  LIG11       0.0618
     41 H          -1.5791  -14.9904   -5.9316 H       1  LIG11       0.0618
     42 H           5.0385  -12.9918   -7.4583 H       1  LIG11       0.0618
     43 H          -1.5916  -13.4189   -4.0084 H       1  LIG11       0.0618
     44 H           6.9610  -12.8803   -5.8875 H       1  LIG11       0.0618
     45 H           5.8249  -19.9844    0.6746 H       1  LIG11       0.0724
     46 H           5.2263  -22.4987   -3.0826 H       1  LIG11       0.0660
     47 H           3.7810  -21.5063   -2.8470 H       1  LIG11       0.0660
     48 H           5.2176  -20.8566   -3.7344 H       1  LIG11       0.0660
     49 H           4.7975  -16.1294    2.8702 H       1  LIG11       0.0660
     50 H           4.9257  -15.6124    1.1855 H       1  LIG11       0.0660
     51 H           3.4404  -16.4516    1.7838 H       1  LIG11       0.0660
@<TRIPOS>BOND
     1     1     9    1
     2     1    18    1
     3     2    10    1
     4     2    25    1
     5     3    17   ar
     6     4    17   ar
     7     5    26    1
     8     5    29    1
     9     6    27    1
    10     6    30    1
    11     7    25   ar
    12     7    26   ar
    13     8    25   ar
    14     8    27   ar
    15     9    10    1
    16     9    11    1
    17     9    12    1
    18    10    17    1
    19    11    13   ar
    20    11    15   ar
    21    12    14   ar
    22    12    16   ar
    23    13    19   ar
    24    14    20   ar
    25    15    21   ar
    26    16    22   ar
    27    19    23   ar
    28    20    24   ar
    29    21    23   ar
    30    22    24   ar
    31    26    28   ar
    32    27    28   ar
    33    10    31    1
    34    13    32    1
    35    14    33    1
    36    15    34    1
    37    16    35    1
    38    18    36    1
    39    18    37    1
    40    18    38    1
    41    19    39    1
    42    20    40    1
    43    21    41    1
    44    22    42    1
    45    23    43    1
    46    24    44    1
    47    28    45    1
    48    29    46    1
    49    29    47    1
    50    29    48    1
    51    30    49    1
    52    30    50    1
    53    30    51    1
@<TRIPOS>MOLECULE
../1EDN/XRAY_17-21.pdb
 47 48 0 0 0
SMALL
GASTEIGER

@<TRIPOS>ATOM
      1  N          6.4500  -19.7300   -2.8460 N.3    17  LEU17      -0.1231
      2  CA         5.2640  -20.1680   -2.1160 C.3    17  LEU17       0.1693
      3  C          4.7010  -18.8060   -1.6720 C.2    17  LEU17       0.2592
      4  O          4.3760  -17.9800   -2.5270 O.2    17  LEU17      -0.2718
      5  CB         5.6570  -21.0170   -0.8850 C.3    17  LEU17       0.0284
      6  CG         5.4050  -22.5400   -0.8470 C.3    17  LEU17       0.0019
      7  CD1        6.1110  -23.2140    0.3150 C.3    17  LEU17       0.0001
      8  CD2        3.9240  -22.7940   -0.7690 C.3    17  LEU17       0.0001
      9  N          4.7270  -18.4910   -0.3800 N.am   18  ASP18      -0.1962
     10  CA         4.1720  -17.2010    0.0630 C.3    18  ASP18       0.1783
     11  C          4.7750  -15.8130   -0.3500 C.2    18  ASP18       0.2620
     12  O          4.1570  -14.7710   -0.0750 O.2    18  ASP18      -0.2715
     13  CB         3.8720  -17.2370    1.5730 C.3    18  ASP18       0.0728
     14  CG         2.4440  -17.7210    1.8880 C.2    18  ASP18       0.0526
     15  OD1        1.8320  -18.4410    1.0660 O.co2  18  ASP18      -0.5491
     16  OD2        1.9260  -17.3730    2.9700 O.co2  18  ASP18      -0.5491
     17  N          5.9570  -15.7420   -0.9630 N.am   19  ILE19      -0.1963
     18  CA         6.4450  -14.4030   -1.3510 C.3    19  ILE19       0.1727
     19  C          5.5760  -13.9960   -2.5290 C.2    19  ILE19       0.2616
     20  O          4.8370  -13.0080   -2.4770 O.2    19  ILE19      -0.2715
     21  CB         7.9140  -14.3690   -1.8400 C.3    19  ILE19       0.0290
     22  CG1        8.8760  -14.8240   -0.7490 C.3    19  ILE19       0.0022
     23  CG2        8.2810  -12.9320   -2.2380 C.3    19  ILE19       0.0023
     24  CD1        9.3280  -13.7050    0.1860 C.3    19  ILE19       0.0001
     25  N          5.7170  -14.7750   -3.5990 N.am   20  ILE20      -0.1963
     26  CA         4.9770  -14.6140   -4.8450 C.3    20  ILE20       0.1727
     27  C          4.7560  -16.0550   -5.2510 C.2    20  ILE20       0.2615
     28  O          5.5820  -16.9240   -4.9410 O.2    20  ILE20      -0.2715
     29  CB         5.8140  -13.8870   -5.9550 C.3    20  ILE20       0.0290
     30  CG1        5.9530  -12.3980   -5.6400 C.3    20  ILE20       0.0022
     31  CG2        5.1640  -14.0490   -7.3150 C.3    20  ILE20       0.0023
     32  CD1        6.8340  -11.6390   -6.6010 C.3    20  ILE20       0.0001
     33  N          3.6520  -16.3070   -5.9350 N.am   21  TRP21      -0.1988
     34  CA         3.3300  -17.6370   -6.4010 C.3    21  TRP21       0.1456
     35  C          2.5650  -17.6270   -7.7180 C.2    21  TRP21       0.1166
     36  O          1.8980  -18.6320   -8.0750 O.co2  21  TRP21      -0.3065
     37  CB         2.6690  -18.5180   -5.3120 C.3    21  TRP21       0.0562
     38  CG         1.5690  -17.9980   -4.3600 C.ar   21  TRP21       0.0005
     39  CD1        0.7990  -18.7930   -3.5490 C.ar   21  TRP21       0.0946
     40  CD2        1.2480  -16.6350   -3.9890 C.ar   21  TRP21       0.0152
     41  CE2        0.3020  -16.7070   -2.9250 C.ar   21  TRP21       0.0810
     42  CE3        1.6680  -15.3700   -4.4360 C.ar   21  TRP21       0.0012
     43  NE1        0.0520  -18.0350   -2.6840 N.ar   21  TRP21      -0.2442
     44  CZ2       -0.2230  -15.5590   -2.2950 C.ar   21  TRP21       0.0191
     45  CZ3        1.1420  -14.2140   -3.8060 C.ar   21  TRP21       0.0001
     46  CH2        0.2070  -14.3240   -2.7450 C.ar   21  TRP21       0.0015
     47  OXT        2.7400  -16.6140   -8.4280 O.co2  21  TRP21      -0.8460
@<TRIPOS>BOND
     1    47    35   ar
     2    36    35   ar
     3    35    34    1
     4    31    29    1
     5    32    30    1
     6    34    33    1
     7    34    37    1
     8    29    30    1
     9    29    26    1
    10    33    27   am
    11    37    38    1
    12    27    28    2
    13    27    26    1
    14    26    25    1
    15    42    40   ar
    16    42    45   ar
    17    38    40   ar
    18    38    39   ar
    19    40    41   ar
    20    45    46   ar
    21    25    19   am
    22    39    43   ar
    23    41    43   ar
    24    41    44   ar
    25     1     2    1
    26    46    44   ar
    27    19    20    2
    28    19    18    1
    29     4     3    2
    30    23    21    1
    31     2     3    1
    32     2     5    1
    33    21    18    1
    34    21    22    1
    35     3     9   am
    36    18    17    1
    37    17    11   am
    38     5     6    1
    39     6     8    1
    40     6     7    1
    41    22    24    1
    42     9    10    1
    43    11    12    2
    44    11    10    1
    45    10    13    1
    46    15    14   ar
    47    13    14    1
    48    14    16   ar
