@<TRIPOS>MOLECULE
9871593
 62 65 0 0 0
SMALL
GASTEIGER

@<TRIPOS>ATOM
      1 O           6.2071  -21.2436   -1.8123 O.3     1  LIG11      -0.4526
      2 O           4.2279  -21.4629   -0.4475 O.3     1  LIG11      -0.4526
      3 O           0.3370  -16.7423   -3.9465 O.3     1  LIG11      -0.4913
      4 O           2.3716  -17.5443   -8.1643 O.3     1  LIG11      -0.4913
      5 O           0.2107  -17.3701   -6.7003 O.3     1  LIG11      -0.4885
      6 O           4.8929  -13.6763   -2.3267 O.2     1  LIG11      -0.2870
      7 O           7.5704  -14.8456   -1.1288 O.co2   1  LIG11      -0.5446
      8 O           5.9314  -15.3828    0.3847 O.co2   1  LIG11      -0.5446
      9 O           5.3877  -11.9571   -8.3536 O.3     1  LIG11      -0.4951
     10 C           5.3056  -16.7435   -4.2631 C.3     1  LIG11       0.0021
     11 C           5.5731  -15.8466   -3.0805 C.2     1  LIG11       0.0135
     12 C           3.9270  -16.7491   -4.8807 C.ar    1  LIG11      -0.0358
     13 C           5.8486  -16.3004   -1.8331 C.2     1  LIG11       0.0117
     14 C           5.5198  -17.6619   -1.3705 C.ar    1  LIG11      -0.0121
     15 C           5.3691  -14.3588   -3.2348 C.2     1  LIG11       0.1901
     16 C           3.8086  -17.0414   -6.2481 C.ar    1  LIG11      -0.0126
     17 C           2.7662  -16.6357   -4.1056 C.ar    1  LIG11      -0.0126
     18 C           6.2198  -18.8015   -1.7846 C.ar    1  LIG11      -0.0084
     19 C           5.7072  -20.0352   -1.4304 C.ar    1  LIG11       0.1668
     20 C           4.3666  -17.8118   -0.5598 C.ar    1  LIG11      -0.0503
     21 C           4.5745  -20.1643   -0.6574 C.ar    1  LIG11       0.1663
     22 C           1.4981  -16.7975   -4.6768 C.ar    1  LIG11       0.1654
     23 C           2.5595  -17.2298   -6.8380 C.ar    1  LIG11       0.1654
     24 C           5.4321  -13.7193   -4.5704 C.ar    1  LIG11       0.0222
     25 C           1.3962  -17.0959   -6.0527 C.ar    1  LIG11       0.2035
     26 C           3.8908  -19.0707   -0.1862 C.ar    1  LIG11      -0.0156
     27 C           6.4862  -15.3889   -0.7501 C.2     1  LIG11       0.0726
     28 C           5.2290  -22.1328   -1.2366 C.3     1  LIG11       0.2332
     29 C           6.4647  -13.9282   -5.4822 C.ar    1  LIG11      -0.0475
     30 C           4.3806  -12.8532   -4.9046 C.ar    1  LIG11      -0.0475
     31 C           6.4044  -13.3177   -6.7425 C.ar    1  LIG11      -0.0193
     32 C           4.3304  -12.2370   -6.1554 C.ar    1  LIG11      -0.0193
     33 C           5.3362  -12.4798   -7.0891 C.ar    1  LIG11       0.1201
     34 C           0.4298  -16.2369   -2.6184 C.3     1  LIG11       0.0790
     35 C           3.5289  -17.8447   -8.9322 C.3     1  LIG11       0.0790
     36 C          -0.8557  -16.4737   -6.4139 C.3     1  LIG11       0.0791
     37 C           4.3001  -11.1225   -8.7382 C.3     1  LIG11       0.0788
     38 H           6.0466  -16.5085   -5.0362 H       1  LIG11       0.0363
     39 H           5.5189  -17.7906   -4.0291 H       1  LIG11       0.0363
     40 H           4.7213  -17.1470   -6.8265 H       1  LIG11       0.0658
     41 H           2.8833  -16.4581   -3.0398 H       1  LIG11       0.0658
     42 H           7.1079  -18.7218   -2.3998 H       1  LIG11       0.0661
     43 H           3.8465  -16.9184   -0.2108 H       1  LIG11       0.0625
     44 H           3.0113  -19.1705    0.4376 H       1  LIG11       0.0655
     45 H           4.7260  -22.6726   -2.0488 H       1  LIG11       0.1166
     46 H           5.7458  -22.8615   -0.6027 H       1  LIG11       0.1166
     47 H           7.3163  -14.5503   -5.2205 H       1  LIG11       0.0626
     48 H           3.5899  -12.6624   -4.1803 H       1  LIG11       0.0626
     49 H           7.2010  -13.4921   -7.4615 H       1  LIG11       0.0654
     50 H           3.4927  -11.5799   -6.3586 H       1  LIG11       0.0654
     51 H          -0.5883  -16.1318   -2.2323 H       1  LIG11       0.0660
     52 H           0.9592  -16.9406   -1.9677 H       1  LIG11       0.0660
     53 H           0.8948  -15.2456   -2.5990 H       1  LIG11       0.0660
     54 H           3.1994  -18.1497   -9.9305 H       1  LIG11       0.0660
     55 H           4.1643  -16.9607   -9.0494 H       1  LIG11       0.0660
     56 H           4.0894  -18.6813   -8.5006 H       1  LIG11       0.0660
     57 H          -1.4878  -16.4213   -7.3061 H       1  LIG11       0.0660
     58 H          -1.4719  -16.8684   -5.6026 H       1  LIG11       0.0660
     59 H          -0.5102  -15.4564   -6.1936 H       1  LIG11       0.0660
     60 H           4.4611  -10.8164   -9.7762 H       1  LIG11       0.0660
     61 H           3.3480  -11.6630   -8.6972 H       1  LIG11       0.0660
     62 H           4.2654  -10.2150   -8.1256 H       1  LIG11       0.0660
@<TRIPOS>BOND
     1     1    19    1
     2     1    28    1
     3     2    28    1
     4     2    21    1
     5     3    22    1
     6     3    34    1
     7     4    23    1
     8     4    35    1
     9     5    25    1
    10     5    36    1
    11     6    15    2
    12     7    27   ar
    13     8    27   ar
    14     9    33    1
    15     9    37    1
    16    10    11    1
    17    10    12    1
    18    11    13    2
    19    11    15    1
    20    12    16   ar
    21    12    17   ar
    22    13    14    1
    23    13    27    1
    24    14    20   ar
    25    14    18   ar
    26    15    24    1
    27    16    23   ar
    28    17    22   ar
    29    18    19   ar
    30    19    21   ar
    31    20    26   ar
    32    21    26   ar
    33    22    25   ar
    34    23    25   ar
    35    24    29   ar
    36    24    30   ar
    37    29    31   ar
    38    30    32   ar
    39    31    33   ar
    40    32    33   ar
    41    10    38    1
    42    10    39    1
    43    16    40    1
    44    17    41    1
    45    18    42    1
    46    20    43    1
    47    26    44    1
    48    28    45    1
    49    28    46    1
    50    29    47    1
    51    30    48    1
    52    31    49    1
    53    32    50    1
    54    34    51    1
    55    34    52    1
    56    34    53    1
    57    35    54    1
    58    35    55    1
    59    35    56    1
    60    36    57    1
    61    36    58    1
    62    36    59    1
    63    37    60    1
    64    37    61    1
    65    37    62    1
@<TRIPOS>MOLECULE
../1EDN/XRAY_17-21.pdb
 47 48 0 0 0
SMALL
GASTEIGER

@<TRIPOS>ATOM
      1  N          6.4500  -19.7300   -2.8460 N.3    17  LEU17      -0.1231
      2  CA         5.2640  -20.1680   -2.1160 C.3    17  LEU17       0.1693
      3  C          4.7010  -18.8060   -1.6720 C.2    17  LEU17       0.2592
      4  O          4.3760  -17.9800   -2.5270 O.2    17  LEU17      -0.2718
      5  CB         5.6570  -21.0170   -0.8850 C.3    17  LEU17       0.0284
      6  CG         5.4050  -22.5400   -0.8470 C.3    17  LEU17       0.0019
      7  CD1        6.1110  -23.2140    0.3150 C.3    17  LEU17       0.0001
      8  CD2        3.9240  -22.7940   -0.7690 C.3    17  LEU17       0.0001
      9  N          4.7270  -18.4910   -0.3800 N.am   18  ASP18      -0.1962
     10  CA         4.1720  -17.2010    0.0630 C.3    18  ASP18       0.1783
     11  C          4.7750  -15.8130   -0.3500 C.2    18  ASP18       0.2620
     12  O          4.1570  -14.7710   -0.0750 O.2    18  ASP18      -0.2715
     13  CB         3.8720  -17.2370    1.5730 C.3    18  ASP18       0.0728
     14  CG         2.4440  -17.7210    1.8880 C.2    18  ASP18       0.0526
     15  OD1        1.8320  -18.4410    1.0660 O.co2  18  ASP18      -0.5491
     16  OD2        1.9260  -17.3730    2.9700 O.co2  18  ASP18      -0.5491
     17  N          5.9570  -15.7420   -0.9630 N.am   19  ILE19      -0.1963
     18  CA         6.4450  -14.4030   -1.3510 C.3    19  ILE19       0.1727
     19  C          5.5760  -13.9960   -2.5290 C.2    19  ILE19       0.2616
     20  O          4.8370  -13.0080   -2.4770 O.2    19  ILE19      -0.2715
     21  CB         7.9140  -14.3690   -1.8400 C.3    19  ILE19       0.0290
     22  CG1        8.8760  -14.8240   -0.7490 C.3    19  ILE19       0.0022
     23  CG2        8.2810  -12.9320   -2.2380 C.3    19  ILE19       0.0023
     24  CD1        9.3280  -13.7050    0.1860 C.3    19  ILE19       0.0001
     25  N          5.7170  -14.7750   -3.5990 N.am   20  ILE20      -0.1963
     26  CA         4.9770  -14.6140   -4.8450 C.3    20  ILE20       0.1727
     27  C          4.7560  -16.0550   -5.2510 C.2    20  ILE20       0.2615
     28  O          5.5820  -16.9240   -4.9410 O.2    20  ILE20      -0.2715
     29  CB         5.8140  -13.8870   -5.9550 C.3    20  ILE20       0.0290
     30  CG1        5.9530  -12.3980   -5.6400 C.3    20  ILE20       0.0022
     31  CG2        5.1640  -14.0490   -7.3150 C.3    20  ILE20       0.0023
     32  CD1        6.8340  -11.6390   -6.6010 C.3    20  ILE20       0.0001
     33  N          3.6520  -16.3070   -5.9350 N.am   21  TRP21      -0.1988
     34  CA         3.3300  -17.6370   -6.4010 C.3    21  TRP21       0.1456
     35  C          2.5650  -17.6270   -7.7180 C.2    21  TRP21       0.1166
     36  O          1.8980  -18.6320   -8.0750 O.co2  21  TRP21      -0.3065
     37  CB         2.6690  -18.5180   -5.3120 C.3    21  TRP21       0.0562
     38  CG         1.5690  -17.9980   -4.3600 C.ar   21  TRP21       0.0005
     39  CD1        0.7990  -18.7930   -3.5490 C.ar   21  TRP21       0.0946
     40  CD2        1.2480  -16.6350   -3.9890 C.ar   21  TRP21       0.0152
     41  CE2        0.3020  -16.7070   -2.9250 C.ar   21  TRP21       0.0810
     42  CE3        1.6680  -15.3700   -4.4360 C.ar   21  TRP21       0.0012
     43  NE1        0.0520  -18.0350   -2.6840 N.ar   21  TRP21      -0.2442
     44  CZ2       -0.2230  -15.5590   -2.2950 C.ar   21  TRP21       0.0191
     45  CZ3        1.1420  -14.2140   -3.8060 C.ar   21  TRP21       0.0001
     46  CH2        0.2070  -14.3240   -2.7450 C.ar   21  TRP21       0.0015
     47  OXT        2.7400  -16.6140   -8.4280 O.co2  21  TRP21      -0.8460
@<TRIPOS>BOND
     1    47    35   ar
     2    36    35   ar
     3    35    34    1
     4    31    29    1
     5    32    30    1
     6    34    33    1
     7    34    37    1
     8    29    30    1
     9    29    26    1
    10    33    27   am
    11    37    38    1
    12    27    28    2
    13    27    26    1
    14    26    25    1
    15    42    40   ar
    16    42    45   ar
    17    38    40   ar
    18    38    39   ar
    19    40    41   ar
    20    45    46   ar
    21    25    19   am
    22    39    43   ar
    23    41    43   ar
    24    41    44   ar
    25     1     2    1
    26    46    44   ar
    27    19    20    2
    28    19    18    1
    29     4     3    2
    30    23    21    1
    31     2     3    1
    32     2     5    1
    33    21    18    1
    34    21    22    1
    35     3     9   am
    36    18    17    1
    37    17    11   am
    38     5     6    1
    39     6     8    1
    40     6     7    1
    41    22    24    1
    42     9    10    1
    43    11    12    2
    44    11    10    1
    45    10    13    1
    46    15    14   ar
    47    13    14    1
    48    14    16   ar
