@<TRIPOS>MOLECULE
11672244
 106 111 0 0 0
SMALL
GASTEIGER

@<TRIPOS>ATOM
      1 O           5.1847  -17.9514   -4.0361 O.3     1  LIG11      -0.4607
      2 O          -1.0335  -21.0854   -4.0014 O.2     1  LIG11      -0.2968
      3 O           4.9564  -11.7151   -4.5078 O.co2   1  LIG11      -0.5492
      4 O           5.8117  -11.6901   -6.6104 O.co2   1  LIG11      -0.5492
      5 O           6.9785  -17.3716   -2.6979 O.2     1  LIG11      -0.2456
      6 O           1.4230  -15.8829    1.8067 O.3     1  LIG11      -0.5067
      7 O           6.5792  -19.8899    0.8895 O.2     1  LIG11      -0.2705
      8 O           6.2005  -24.9388    0.9729 O.co2   1  LIG11      -0.5452
      9 O           5.5194  -25.1109   -1.2039 O.co2   1  LIG11      -0.5452
     10 N           4.3334  -20.5337    0.8321 N.am    1  LIG11      -0.2815
     11 C           3.0916  -16.1343   -5.5129 C.3     1  LIG11      -0.0160
     12 C           2.4399  -16.6286   -4.1678 C.3     1  LIG11      -0.0256
     13 C           4.6842  -15.7975   -5.2668 C.3     1  LIG11       0.0318
     14 C           1.0234  -17.3664   -4.2411 C.3     1  LIG11      -0.0243
     15 C           1.0939  -18.4347   -5.3889 C.3     1  LIG11      -0.0235
     16 C           2.9189  -17.2098   -6.6143 C.3     1  LIG11      -0.0461
     17 C           4.8587  -14.9315   -3.9936 C.2     1  LIG11      -0.0596
     18 C           6.2212  -14.2183   -3.8470 C.3     1  LIG11      -0.0080
     19 C           1.5029  -17.7743   -6.7198 C.3     1  LIG11      -0.0483
     20 C           5.2429  -15.0246   -6.5132 C.3     1  LIG11      -0.0392
     21 C           2.5546  -15.5274   -3.0944 C.3     1  LIG11      -0.0306
     22 C           6.5924  -13.3892   -5.0994 C.3     1  LIG11       0.0167
     23 C          -0.1128  -19.4246   -5.5070 C.3     1  LIG11       0.0267
     24 C           0.8206  -18.1656   -2.9182 C.3     1  LIG11      -0.0404
     25 C           6.6008  -14.3481   -6.3141 C.3     1  LIG11      -0.0408
     26 C           2.3538  -14.8470   -6.0055 C.3     1  LIG11      -0.0584
     27 C           3.8854  -14.8361   -3.0645 C.2     1  LIG11      -0.0835
     28 C           5.6007  -17.0843   -5.1039 C.3     1  LIG11       0.1025
     29 C          -0.1574  -16.3805   -4.3867 C.3     1  LIG11      -0.0590
     30 C           6.4748  -13.4669   -2.5162 C.3     1  LIG11      -0.0405
     31 C           8.0138  -12.7892   -4.9547 C.3     1  LIG11      -0.0412
     32 C          -0.3976  -19.0784   -2.9139 C.3     1  LIG11       0.0069
     33 C           7.8994  -12.8751   -2.3945 C.3     1  LIG11      -0.0343
     34 C          -0.4959  -19.9790   -4.1234 C.2     1  LIG11       0.1392
     35 C           8.2270  -12.0330   -3.6424 C.3     1  LIG11      -0.0470
     36 C          -1.3768  -18.8327   -6.1489 C.3     1  LIG11      -0.0528
     37 C           0.3130  -20.6385   -6.3777 C.3     1  LIG11      -0.0528
     38 C           5.6912  -12.1531   -5.4362 C.2     1  LIG11       0.0485
     39 C           7.9587  -11.9672   -1.1507 C.3     1  LIG11      -0.0598
     40 C           8.9436  -13.9944   -2.2032 C.3     1  LIG11      -0.0598
     41 C           5.8784  -17.8673   -2.8694 C.2     1  LIG11       0.3320
     42 C           4.9675  -18.3371   -1.8054 C.2     1  LIG11       0.0231
     43 C           5.1184  -17.8824   -0.5526 C.2     1  LIG11      -0.0460
     44 C           4.0650  -18.0727    0.4533 C.ar    1  LIG11      -0.0001
     45 C           3.6687  -19.3026    1.0115 C.ar    1  LIG11       0.0411
     46 C           3.3122  -16.9154    0.7398 C.ar    1  LIG11      -0.0113
     47 C           2.4988  -19.3547    1.7908 C.ar    1  LIG11      -0.0364
     48 C           2.1757  -16.9883    1.5388 C.ar    1  LIG11       0.1175
     49 C           1.7613  -18.2009    2.0633 C.ar    1  LIG11      -0.0184
     50 C           5.6996  -20.7257    0.7526 C.2     1  LIG11       0.2411
     51 C           6.0393  -22.1698    0.7080 C.2     1  LIG11       0.0021
     52 C           5.4935  -23.0055   -0.1877 C.2     1  LIG11      -0.0344
     53 C           5.7882  -24.4963   -0.1349 C.2     1  LIG11       0.0647
     54 H           1.8232  -15.1259    1.3454 H       1  LIG11       0.2921
     55 H           3.8127  -21.3756    1.0463 H       1  LIG11       0.1551
     56 H           3.0853  -17.4314   -3.8160 H       1  LIG11       0.0315
     57 H           1.9426  -19.0838   -5.1128 H       1  LIG11       0.0315
     58 H           3.5782  -18.0622   -6.4270 H       1  LIG11       0.0271
     59 H           3.2128  -16.8083   -7.5916 H       1  LIG11       0.0271
     60 H           6.9442  -15.0417   -3.8100 H       1  LIG11       0.0355
     61 H           0.7976  -16.9952   -7.0225 H       1  LIG11       0.0269
     62 H           1.5102  -18.5046   -7.5341 H       1  LIG11       0.0269
     63 H           4.5623  -14.2308   -6.8269 H       1  LIG11       0.0275
     64 H           5.3176  -15.7078   -7.3682 H       1  LIG11       0.0275
     65 H           1.7980  -14.7499   -3.2313 H       1  LIG11       0.0310
     66 H           2.3836  -15.9637   -2.1050 H       1  LIG11       0.0310
     67 H           0.7394  -17.4824   -2.0651 H       1  LIG11       0.0275
     68 H           1.7045  -18.7893   -2.7306 H       1  LIG11       0.0275
     69 H           6.8693  -13.8205   -7.2382 H       1  LIG11       0.0275
     70 H           7.3774  -15.1124   -6.1880 H       1  LIG11       0.0275
     71 H           1.2726  -14.9203   -5.9347 H       1  LIG11       0.0235
     72 H           2.5551  -14.6451   -7.0634 H       1  LIG11       0.0235
     73 H           2.6423  -13.9555   -5.4399 H       1  LIG11       0.0235
     74 H           4.0272  -14.1845   -2.2071 H       1  LIG11       0.0572
     75 H           5.5764  -17.6835   -6.0198 H       1  LIG11       0.0706
     76 H           6.6566  -16.8224   -4.9861 H       1  LIG11       0.0706
     77 H          -0.3100  -16.0439   -5.4124 H       1  LIG11       0.0235
     78 H          -0.0427  -15.4979   -3.7538 H       1  LIG11       0.0235
     79 H          -1.1090  -16.8137   -4.0754 H       1  LIG11       0.0235
     80 H           6.3094  -14.1549   -1.6755 H       1  LIG11       0.0276
     81 H           5.7425  -12.6610   -2.3925 H       1  LIG11       0.0276
     82 H           8.2416  -12.1099   -5.7868 H       1  LIG11       0.0274
     83 H           8.7607  -13.5901   -5.0251 H       1  LIG11       0.0274
     84 H          -1.3285  -18.5092   -2.8396 H       1  LIG11       0.0342
     85 H          -0.3455  -19.7175   -2.0234 H       1  LIG11       0.0342
     86 H           7.6086  -11.1263   -3.6499 H       1  LIG11       0.0271
     87 H           9.2677  -11.6868   -3.5989 H       1  LIG11       0.0271
     88 H          -1.8783  -18.1050   -5.5100 H       1  LIG11       0.0239
     89 H          -2.1196  -19.6188   -6.3352 H       1  LIG11       0.0239
     90 H          -1.1631  -18.3584   -7.1115 H       1  LIG11       0.0239
     91 H           1.2175  -21.1135   -5.9794 H       1  LIG11       0.0239
     92 H           0.5050  -20.3557   -7.4167 H       1  LIG11       0.0239
     93 H          -0.4655  -21.4101   -6.4068 H       1  LIG11       0.0239
     94 H           7.2382  -11.1449   -1.2230 H       1  LIG11       0.0235
     95 H           8.9547  -11.5263   -1.0302 H       1  LIG11       0.0235
     96 H           7.7298  -12.5308   -0.2389 H       1  LIG11       0.0235
     97 H           8.9828  -14.6871   -3.0484 H       1  LIG11       0.0235
     98 H           8.7236  -14.5869   -1.3075 H       1  LIG11       0.0235
     99 H           9.9491  -13.5750   -2.0824 H       1  LIG11       0.0235
    100 H           4.1150  -18.9303   -2.1079 H       1  LIG11       0.0689
    101 H           5.9569  -17.2495   -0.2726 H       1  LIG11       0.0626
    102 H           3.6084  -15.9664    0.2977 H       1  LIG11       0.0660
    103 H           2.1686  -20.2950    2.2247 H       1  LIG11       0.0637
    104 H           0.8723  -18.2526    2.6842 H       1  LIG11       0.0655
    105 H           6.7446  -22.5131    1.4581 H       1  LIG11       0.0670
    106 H           4.8382  -22.6561   -0.9791 H       1  LIG11       0.0637
@<TRIPOS>BOND
     1     1    41    1
     2     1    28    1
     3     2    34    2
     4     3    38   ar
     5     4    38   ar
     6     5    41    2
     7     6    48    1
     8     7    50    2
     9     8    53   ar
    10     9    53   ar
    11    10    45    1
    12    10    50   am
    13    11    16    1
    14    11    12    1
    15    11    26    1
    16    11    13    1
    17    12    14    1
    18    13    20    1
    19    13    17    1
    20    13    28    1
    21    14    15    1
    22    14    24    1
    23    14    29    1
    24    15    19    1
    25    15    23    1
    26    16    19    1
    27    17    18    1
    28    17    27    2
    29    18    30    1
    30    18    22    1
    31    20    25    1
    32    21    27    1
    33    21    12    1
    34    22    31    1
    35    22    25    1
    36    22    38    1
    37    23    34    1
    38    23    37    1
    39    23    36    1
    40    24    32    1
    41    30    33    1
    42    31    35    1
    43    32    34    1
    44    33    35    1
    45    33    40    1
    46    33    39    1
    47    41    42    1
    48    42    43    2
    49    43    44    1
    50    44    46   ar
    51    44    45   ar
    52    45    47   ar
    53    46    48   ar
    54    47    49   ar
    55    48    49   ar
    56    50    51    1
    57    51    52    2
    58    52    53    1
    59     6    54    1
    60    10    55    1
    61    12    56    1
    62    15    57    1
    63    16    58    1
    64    16    59    1
    65    18    60    1
    66    19    61    1
    67    19    62    1
    68    20    63    1
    69    20    64    1
    70    21    65    1
    71    21    66    1
    72    24    67    1
    73    24    68    1
    74    25    69    1
    75    25    70    1
    76    26    71    1
    77    26    72    1
    78    26    73    1
    79    27    74    1
    80    28    75    1
    81    28    76    1
    82    29    77    1
    83    29    78    1
    84    29    79    1
    85    30    80    1
    86    30    81    1
    87    31    82    1
    88    31    83    1
    89    32    84    1
    90    32    85    1
    91    35    86    1
    92    35    87    1
    93    36    88    1
    94    36    89    1
    95    36    90    1
    96    37    91    1
    97    37    92    1
    98    37    93    1
    99    39    94    1
   100    39    95    1
   101    39    96    1
   102    40    97    1
   103    40    98    1
   104    40    99    1
   105    42   100    1
   106    43   101    1
   107    46   102    1
   108    47   103    1
   109    49   104    1
   110    51   105    1
   111    52   106    1
@<TRIPOS>MOLECULE
../1EDN/XRAY_17-21.pdb
 47 48 0 0 0
SMALL
GASTEIGER

@<TRIPOS>ATOM
      1  N          6.4500  -19.7300   -2.8460 N.3    17  LEU17      -0.1231
      2  CA         5.2640  -20.1680   -2.1160 C.3    17  LEU17       0.1693
      3  C          4.7010  -18.8060   -1.6720 C.2    17  LEU17       0.2592
      4  O          4.3760  -17.9800   -2.5270 O.2    17  LEU17      -0.2718
      5  CB         5.6570  -21.0170   -0.8850 C.3    17  LEU17       0.0284
      6  CG         5.4050  -22.5400   -0.8470 C.3    17  LEU17       0.0019
      7  CD1        6.1110  -23.2140    0.3150 C.3    17  LEU17       0.0001
      8  CD2        3.9240  -22.7940   -0.7690 C.3    17  LEU17       0.0001
      9  N          4.7270  -18.4910   -0.3800 N.am   18  ASP18      -0.1962
     10  CA         4.1720  -17.2010    0.0630 C.3    18  ASP18       0.1783
     11  C          4.7750  -15.8130   -0.3500 C.2    18  ASP18       0.2620
     12  O          4.1570  -14.7710   -0.0750 O.2    18  ASP18      -0.2715
     13  CB         3.8720  -17.2370    1.5730 C.3    18  ASP18       0.0728
     14  CG         2.4440  -17.7210    1.8880 C.2    18  ASP18       0.0526
     15  OD1        1.8320  -18.4410    1.0660 O.co2  18  ASP18      -0.5491
     16  OD2        1.9260  -17.3730    2.9700 O.co2  18  ASP18      -0.5491
     17  N          5.9570  -15.7420   -0.9630 N.am   19  ILE19      -0.1963
     18  CA         6.4450  -14.4030   -1.3510 C.3    19  ILE19       0.1727
     19  C          5.5760  -13.9960   -2.5290 C.2    19  ILE19       0.2616
     20  O          4.8370  -13.0080   -2.4770 O.2    19  ILE19      -0.2715
     21  CB         7.9140  -14.3690   -1.8400 C.3    19  ILE19       0.0290
     22  CG1        8.8760  -14.8240   -0.7490 C.3    19  ILE19       0.0022
     23  CG2        8.2810  -12.9320   -2.2380 C.3    19  ILE19       0.0023
     24  CD1        9.3280  -13.7050    0.1860 C.3    19  ILE19       0.0001
     25  N          5.7170  -14.7750   -3.5990 N.am   20  ILE20      -0.1963
     26  CA         4.9770  -14.6140   -4.8450 C.3    20  ILE20       0.1727
     27  C          4.7560  -16.0550   -5.2510 C.2    20  ILE20       0.2615
     28  O          5.5820  -16.9240   -4.9410 O.2    20  ILE20      -0.2715
     29  CB         5.8140  -13.8870   -5.9550 C.3    20  ILE20       0.0290
     30  CG1        5.9530  -12.3980   -5.6400 C.3    20  ILE20       0.0022
     31  CG2        5.1640  -14.0490   -7.3150 C.3    20  ILE20       0.0023
     32  CD1        6.8340  -11.6390   -6.6010 C.3    20  ILE20       0.0001
     33  N          3.6520  -16.3070   -5.9350 N.am   21  TRP21      -0.1988
     34  CA         3.3300  -17.6370   -6.4010 C.3    21  TRP21       0.1456
     35  C          2.5650  -17.6270   -7.7180 C.2    21  TRP21       0.1166
     36  O          1.8980  -18.6320   -8.0750 O.co2  21  TRP21      -0.3065
     37  CB         2.6690  -18.5180   -5.3120 C.3    21  TRP21       0.0562
     38  CG         1.5690  -17.9980   -4.3600 C.ar   21  TRP21       0.0005
     39  CD1        0.7990  -18.7930   -3.5490 C.ar   21  TRP21       0.0946
     40  CD2        1.2480  -16.6350   -3.9890 C.ar   21  TRP21       0.0152
     41  CE2        0.3020  -16.7070   -2.9250 C.ar   21  TRP21       0.0810
     42  CE3        1.6680  -15.3700   -4.4360 C.ar   21  TRP21       0.0012
     43  NE1        0.0520  -18.0350   -2.6840 N.ar   21  TRP21      -0.2442
     44  CZ2       -0.2230  -15.5590   -2.2950 C.ar   21  TRP21       0.0191
     45  CZ3        1.1420  -14.2140   -3.8060 C.ar   21  TRP21       0.0001
     46  CH2        0.2070  -14.3240   -2.7450 C.ar   21  TRP21       0.0015
     47  OXT        2.7400  -16.6140   -8.4280 O.co2  21  TRP21      -0.8460
@<TRIPOS>BOND
     1    47    35   ar
     2    36    35   ar
     3    35    34    1
     4    31    29    1
     5    32    30    1
     6    34    33    1
     7    34    37    1
     8    29    30    1
     9    29    26    1
    10    33    27   am
    11    37    38    1
    12    27    28    2
    13    27    26    1
    14    26    25    1
    15    42    40   ar
    16    42    45   ar
    17    38    40   ar
    18    38    39   ar
    19    40    41   ar
    20    45    46   ar
    21    25    19   am
    22    39    43   ar
    23    41    43   ar
    24    41    44   ar
    25     1     2    1
    26    46    44   ar
    27    19    20    2
    28    19    18    1
    29     4     3    2
    30    23    21    1
    31     2     3    1
    32     2     5    1
    33    21    18    1
    34    21    22    1
    35     3     9   am
    36    18    17    1
    37    17    11   am
    38     5     6    1
    39     6     8    1
    40     6     7    1
    41    22    24    1
    42     9    10    1
    43    11    12    2
    44    11    10    1
    45    10    13    1
    46    15    14   ar
    47    13    14    1
    48    14    16   ar
