@<TRIPOS>MOLECULE
6433095
 64 68 0 0 0
SMALL
GASTEIGER

@<TRIPOS>ATOM
      1 S           2.8097  -17.5825   -6.2646 S.O2    1  LIG11       0.0908
      2 O           5.1278  -17.6232   -3.1462 O.3     1  LIG11      -0.4435
      3 O           6.5779  -15.3829   -2.1621 O.3     1  LIG11      -0.4715
      4 O           2.4788  -18.9868   -6.4530 O.2     1  LIG11      -0.1484
      5 O           2.5930  -16.6401   -7.3396 O.2     1  LIG11      -0.1484
      6 O           5.3269  -19.7970   -1.6942 O.3     1  LIG11      -0.4914
      7 O           6.5672  -13.6020    0.2306 O.3     1  LIG11      -0.3917
      8 N           4.4247  -17.5925   -5.7936 N.pl3   1  LIG11      -0.1950
      9 N           5.0787  -15.3520   -5.9773 N.ar    1  LIG11      -0.2073
     10 N           6.1700  -14.2567   -4.1697 N.ar    1  LIG11      -0.1899
     11 N           1.9515  -15.6930   -4.5841 N.ar    1  LIG11      -0.2351
     12 N           5.7926  -10.5284   -7.4724 N.ar    1  LIG11      -0.2552
     13 N           6.0500  -10.4438  -10.3185 N.ar    1  LIG11      -0.5621
     14 N           6.4081  -12.6752  -10.3992 N.ar    1  LIG11      -0.1535
     15 N           6.3492  -10.9046  -11.5365 N.ar    1  LIG11      -0.3597
     16 N           6.5732  -12.2187  -11.6328 N.ar    1  LIG11      -0.0878
     17 C           4.9492  -16.4244   -5.1815 C.ar    1  LIG11       0.1882
     18 C           5.3460  -16.4774   -3.8573 C.ar    1  LIG11       0.2307
     19 C           6.0346  -15.3668   -3.4275 C.ar    1  LIG11       0.2641
     20 C           5.6441  -14.2786   -5.4083 C.ar    1  LIG11       0.1659
     21 C           1.9055  -17.0319   -4.8123 C.ar    1  LIG11       0.1969
     22 C           5.6778  -13.0069   -6.1427 C.ar    1  LIG11       0.0227
     23 C           1.2103  -17.9424   -4.0305 C.ar    1  LIG11      -0.0160
     24 C           4.5807  -17.5639   -1.8765 C.ar    1  LIG11       0.1702
     25 C           5.8069  -12.9438   -7.5371 C.ar    1  LIG11      -0.0252
     26 C           0.5024  -16.0708   -2.6806 C.ar    1  LIG11      -0.0322
     27 C           0.5050  -17.4451   -2.9385 C.ar    1  LIG11      -0.0541
     28 C           5.5965  -11.7916   -5.4436 C.ar    1  LIG11      -0.0328
     29 C           7.4942  -14.3189   -1.8843 C.3     1  LIG11       0.1143
     30 C           5.8761  -11.6981   -8.1621 C.ar    1  LIG11       0.0708
     31 C           1.2290  -15.2461   -3.5363 C.ar    1  LIG11       0.0327
     32 C           4.7006  -18.7297   -1.0993 C.ar    1  LIG11       0.1621
     33 C           3.8931  -16.4600   -1.3565 C.ar    1  LIG11      -0.0157
     34 C           5.6490  -10.5998   -6.1386 C.ar    1  LIG11       0.0289
     35 C          -0.2562  -15.4881   -1.5304 C.3     1  LIG11      -0.0383
     36 C           7.6900  -14.2485   -0.3721 C.3     1  LIG11       0.0783
     37 C           4.2149  -18.7398    0.2134 C.ar    1  LIG11      -0.0163
     38 C           3.4028  -16.4822   -0.0504 C.ar    1  LIG11      -0.0581
     39 C           3.5739  -17.6155    0.7373 C.ar    1  LIG11      -0.0581
     40 C           6.0912  -11.5899   -9.6075 C.ar    1  LIG11       0.0207
     41 C           5.0247  -21.0791   -1.1553 C.3     1  LIG11       0.0790
     42 H           6.7035  -13.6377    1.1923 H       1  LIG11       0.2095
     43 H           4.6473  -18.4622   -5.3122 H       1  LIG11       0.1754
     44 H           6.4076  -10.2915  -12.3446 H       1  LIG11       0.1651
     45 H           1.2091  -19.0036   -4.2557 H       1  LIG11       0.0653
     46 H           5.8714  -13.8596   -8.1205 H       1  LIG11       0.0646
     47 H          -0.0455  -18.1306   -2.2982 H       1  LIG11       0.0622
     48 H           5.4876  -11.7746   -4.3623 H       1  LIG11       0.0640
     49 H           7.1190  -13.3496   -2.2313 H       1  LIG11       0.0720
     50 H           8.4474  -14.5544   -2.3708 H       1  LIG11       0.0720
     51 H           1.2552  -14.1686   -3.3919 H       1  LIG11       0.0833
     52 H           3.7403  -15.5573   -1.9398 H       1  LIG11       0.0655
     53 H           5.5811   -9.6456   -5.6242 H       1  LIG11       0.0830
     54 H          -0.7181  -16.2692   -0.9178 H       1  LIG11       0.0278
     55 H          -1.0509  -14.8305   -1.8968 H       1  LIG11       0.0278
     56 H           0.4168  -14.9138   -0.8855 H       1  LIG11       0.0278
     57 H           7.7787  -15.2492    0.0625 H       1  LIG11       0.0591
     58 H           8.5803  -13.6604   -0.1320 H       1  LIG11       0.0591
     59 H           4.3377  -19.6038    0.8582 H       1  LIG11       0.0655
     60 H           2.9012  -15.6060    0.3532 H       1  LIG11       0.0619
     61 H           3.2095  -17.6246    1.7615 H       1  LIG11       0.0619
     62 H           5.3886  -21.8319   -1.8609 H       1  LIG11       0.0660
     63 H           3.9444  -21.2245   -1.0426 H       1  LIG11       0.0660
     64 H           5.5443  -21.2329   -0.2046 H       1  LIG11       0.0660
@<TRIPOS>BOND
     1     1     4    2
     2     1     5    2
     3     1     8    1
     4     1    21    1
     5     2    18    1
     6     2    24    1
     7     3    19    1
     8     3    29    1
     9     6    32    1
    10     6    41    1
    11     7    36    1
    12     8    17    1
    13     9    17   ar
    14     9    20   ar
    15    10    19   ar
    16    10    20   ar
    17    11    21   ar
    18    11    31   ar
    19    12    30   ar
    20    12    34   ar
    21    13    15   ar
    22    13    40   ar
    23    14    16   ar
    24    14    40   ar
    25    15    16   ar
    26    17    18   ar
    27    18    19   ar
    28    20    22    1
    29    21    23   ar
    30    22    25   ar
    31    22    28   ar
    32    23    27   ar
    33    24    32   ar
    34    24    33   ar
    35    25    30   ar
    36    26    27   ar
    37    26    31   ar
    38    26    35    1
    39    28    34   ar
    40    29    36    1
    41    30    40    1
    42    32    37   ar
    43    33    38   ar
    44    37    39   ar
    45    38    39   ar
    46     7    42    1
    47     8    43    1
    48    15    44    1
    49    23    45    1
    50    25    46    1
    51    27    47    1
    52    28    48    1
    53    29    49    1
    54    29    50    1
    55    31    51    1
    56    33    52    1
    57    34    53    1
    58    35    54    1
    59    35    55    1
    60    35    56    1
    61    36    57    1
    62    36    58    1
    63    37    59    1
    64    38    60    1
    65    39    61    1
    66    41    62    1
    67    41    63    1
    68    41    64    1
@<TRIPOS>MOLECULE
../1EDN/XRAY_17-21.pdb
 47 48 0 0 0
SMALL
GASTEIGER

@<TRIPOS>ATOM
      1  N          6.4500  -19.7300   -2.8460 N.3    17  LEU17      -0.1231
      2  CA         5.2640  -20.1680   -2.1160 C.3    17  LEU17       0.1693
      3  C          4.7010  -18.8060   -1.6720 C.2    17  LEU17       0.2592
      4  O          4.3760  -17.9800   -2.5270 O.2    17  LEU17      -0.2718
      5  CB         5.6570  -21.0170   -0.8850 C.3    17  LEU17       0.0284
      6  CG         5.4050  -22.5400   -0.8470 C.3    17  LEU17       0.0019
      7  CD1        6.1110  -23.2140    0.3150 C.3    17  LEU17       0.0001
      8  CD2        3.9240  -22.7940   -0.7690 C.3    17  LEU17       0.0001
      9  N          4.7270  -18.4910   -0.3800 N.am   18  ASP18      -0.1962
     10  CA         4.1720  -17.2010    0.0630 C.3    18  ASP18       0.1783
     11  C          4.7750  -15.8130   -0.3500 C.2    18  ASP18       0.2620
     12  O          4.1570  -14.7710   -0.0750 O.2    18  ASP18      -0.2715
     13  CB         3.8720  -17.2370    1.5730 C.3    18  ASP18       0.0728
     14  CG         2.4440  -17.7210    1.8880 C.2    18  ASP18       0.0526
     15  OD1        1.8320  -18.4410    1.0660 O.co2  18  ASP18      -0.5491
     16  OD2        1.9260  -17.3730    2.9700 O.co2  18  ASP18      -0.5491
     17  N          5.9570  -15.7420   -0.9630 N.am   19  ILE19      -0.1963
     18  CA         6.4450  -14.4030   -1.3510 C.3    19  ILE19       0.1727
     19  C          5.5760  -13.9960   -2.5290 C.2    19  ILE19       0.2616
     20  O          4.8370  -13.0080   -2.4770 O.2    19  ILE19      -0.2715
     21  CB         7.9140  -14.3690   -1.8400 C.3    19  ILE19       0.0290
     22  CG1        8.8760  -14.8240   -0.7490 C.3    19  ILE19       0.0022
     23  CG2        8.2810  -12.9320   -2.2380 C.3    19  ILE19       0.0023
     24  CD1        9.3280  -13.7050    0.1860 C.3    19  ILE19       0.0001
     25  N          5.7170  -14.7750   -3.5990 N.am   20  ILE20      -0.1963
     26  CA         4.9770  -14.6140   -4.8450 C.3    20  ILE20       0.1727
     27  C          4.7560  -16.0550   -5.2510 C.2    20  ILE20       0.2615
     28  O          5.5820  -16.9240   -4.9410 O.2    20  ILE20      -0.2715
     29  CB         5.8140  -13.8870   -5.9550 C.3    20  ILE20       0.0290
     30  CG1        5.9530  -12.3980   -5.6400 C.3    20  ILE20       0.0022
     31  CG2        5.1640  -14.0490   -7.3150 C.3    20  ILE20       0.0023
     32  CD1        6.8340  -11.6390   -6.6010 C.3    20  ILE20       0.0001
     33  N          3.6520  -16.3070   -5.9350 N.am   21  TRP21      -0.1988
     34  CA         3.3300  -17.6370   -6.4010 C.3    21  TRP21       0.1456
     35  C          2.5650  -17.6270   -7.7180 C.2    21  TRP21       0.1166
     36  O          1.8980  -18.6320   -8.0750 O.co2  21  TRP21      -0.3065
     37  CB         2.6690  -18.5180   -5.3120 C.3    21  TRP21       0.0562
     38  CG         1.5690  -17.9980   -4.3600 C.ar   21  TRP21       0.0005
     39  CD1        0.7990  -18.7930   -3.5490 C.ar   21  TRP21       0.0946
     40  CD2        1.2480  -16.6350   -3.9890 C.ar   21  TRP21       0.0152
     41  CE2        0.3020  -16.7070   -2.9250 C.ar   21  TRP21       0.0810
     42  CE3        1.6680  -15.3700   -4.4360 C.ar   21  TRP21       0.0012
     43  NE1        0.0520  -18.0350   -2.6840 N.ar   21  TRP21      -0.2442
     44  CZ2       -0.2230  -15.5590   -2.2950 C.ar   21  TRP21       0.0191
     45  CZ3        1.1420  -14.2140   -3.8060 C.ar   21  TRP21       0.0001
     46  CH2        0.2070  -14.3240   -2.7450 C.ar   21  TRP21       0.0015
     47  OXT        2.7400  -16.6140   -8.4280 O.co2  21  TRP21      -0.8460
@<TRIPOS>BOND
     1    47    35   ar
     2    36    35   ar
     3    35    34    1
     4    31    29    1
     5    32    30    1
     6    34    33    1
     7    34    37    1
     8    29    30    1
     9    29    26    1
    10    33    27   am
    11    37    38    1
    12    27    28    2
    13    27    26    1
    14    26    25    1
    15    42    40   ar
    16    42    45   ar
    17    38    40   ar
    18    38    39   ar
    19    40    41   ar
    20    45    46   ar
    21    25    19   am
    22    39    43   ar
    23    41    43   ar
    24    41    44   ar
    25     1     2    1
    26    46    44   ar
    27    19    20    2
    28    19    18    1
    29     4     3    2
    30    23    21    1
    31     2     3    1
    32     2     5    1
    33    21    18    1
    34    21    22    1
    35     3     9   am
    36    18    17    1
    37    17    11   am
    38     5     6    1
    39     6     8    1
    40     6     7    1
    41    22    24    1
    42     9    10    1
    43    11    12    2
    44    11    10    1
    45    10    13    1
    46    15    14   ar
    47    13    14    1
    48    14    16   ar
