@<TRIPOS>MOLECULE
01012527H
 86 88 0 0 0
SMALL
GASTEIGER

@<TRIPOS>ATOM
      1 C           3.7417  -14.8411   -2.1126 C.3     1  LIG11       0.0531
      2 C           4.0065  -14.9346   -3.6091 C.3     1  LIG11      -0.0111
      3 C           4.9867  -15.3521   -1.3950 C.3     1  LIG11       0.0375
      4 C           3.5081  -13.3438   -1.9608 C.2     1  LIG11       0.0509
      5 N           5.5630  -14.8560   -3.7141 N.4     1  LIG11       0.2448
      6 C           3.5723  -16.2615   -4.2856 C.3     1  LIG11      -0.0039
      7 C           4.8730  -16.8243   -1.0134 C.ar    1  LIG11      -0.0313
      8 C           6.1347  -14.9386   -2.3146 C.3     1  LIG11      -0.0234
      9 O           4.5271  -12.6688   -1.6467 O.co2   1  LIG11      -0.5493
     10 O           2.3545  -12.9613   -2.2765 O.co2   1  LIG11      -0.5493
     11 C           6.0331  -13.5747   -4.4210 C.3     1  LIG11       0.0465
     12 C           2.0661  -16.4580   -4.6550 C.3     1  LIG11      -0.0298
     13 C           5.6130  -17.8511   -1.6148 C.ar    1  LIG11      -0.0122
     14 C           3.9741  -17.1576    0.0408 C.ar    1  LIG11      -0.0124
     15 C           5.7303  -13.5820   -5.9240 C.2     1  LIG11       0.2608
     16 C           1.9398  -17.6244   -5.6930 C.3     1  LIG11      -0.0479
     17 C           1.2549  -16.8836   -3.4126 C.3     1  LIG11      -0.0596
     18 C           1.4356  -15.1769   -5.2260 C.3     1  LIG11      -0.0596
     19 C           5.4360  -19.1412   -1.1545 C.ar    1  LIG11       0.1702
     20 C           3.8099  -18.4741    0.4904 C.ar    1  LIG11       0.1656
     21 N           5.8735  -12.3890   -6.6233 N.am    1  LIG11      -0.2971
     22 O           5.3649  -14.6287   -6.4659 O.2     1  LIG11      -0.2697
     23 C           2.4533  -17.3283   -7.1105 C.3     1  LIG11      -0.0554
     24 C           4.5648  -19.4474   -0.1357 C.ar    1  LIG11       0.2075
     25 O           6.0861  -20.2361   -1.6359 O.3     1  LIG11      -0.4525
     26 O           2.9795  -18.8873    1.4902 O.3     1  LIG11      -0.4913
     27 C           6.6902  -11.2599   -6.1573 C.3     1  LIG11       0.0148
     28 C           5.3754  -12.3311   -8.0015 C.3     1  LIG11       0.0148
     29 C           2.2962  -18.5391   -8.0201 C.3     1  LIG11      -0.0653
     30 O           4.5633  -20.7808    0.1488 O.3     1  LIG11      -0.4489
     31 C           5.5324  -21.2699   -0.7946 C.3     1  LIG11       0.2334
     32 C           2.2167  -17.8878    2.1540 C.3     1  LIG11       0.0790
     33 C           8.0938  -11.3140   -6.7749 C.3     1  LIG11      -0.0374
     34 C           3.8475  -12.2386   -8.0407 C.3     1  LIG11      -0.0374
     35 C           9.0484  -10.2608   -6.2138 C.3     1  LIG11      -0.0545
     36 C           3.2948  -11.9622   -9.4398 C.3     1  LIG11      -0.0545
     37 C           9.5867  -10.6272   -4.8393 C.3     1  LIG11      -0.0652
     38 C           3.6203  -13.0533  -10.4476 C.3     1  LIG11      -0.0652
     39 H           2.8339  -15.3500   -1.7884 H       1  LIG11       0.0424
     40 H           3.6221  -14.0967   -4.1996 H       1  LIG11       0.0858
     41 H           5.1356  -14.8263   -0.4410 H       1  LIG11       0.0409
     42 H           5.8856  -15.6373   -4.2962 H       1  LIG11       0.2042
     43 H           3.8996  -17.1161   -3.6848 H       1  LIG11       0.0325
     44 H           4.1447  -16.3473   -5.2128 H       1  LIG11       0.0325
     45 H           6.9871  -15.6218   -2.3426 H       1  LIG11       0.0821
     46 H           6.5240  -13.9506   -2.0458 H       1  LIG11       0.0821
     47 H           7.1196  -13.5327   -4.2918 H       1  LIG11       0.0913
     48 H           5.5459  -12.7271   -3.9363 H       1  LIG11       0.0913
     49 H           6.3107  -17.6874   -2.4258 H       1  LIG11       0.0658
     50 H           3.4093  -16.3485    0.5007 H       1  LIG11       0.0658
     51 H           0.8830  -17.9121   -5.7801 H       1  LIG11       0.0270
     52 H           2.4625  -18.5072   -5.3002 H       1  LIG11       0.0270
     53 H           1.1232  -16.0609   -2.7060 H       1  LIG11       0.0235
     54 H           1.7358  -17.7168   -2.8881 H       1  LIG11       0.0235
     55 H           0.2460  -17.2098   -3.6924 H       1  LIG11       0.0235
     56 H           1.3183  -14.4077   -4.4561 H       1  LIG11       0.0235
     57 H           0.4370  -15.3777   -5.6309 H       1  LIG11       0.0235
     58 H           2.0457  -14.7497   -6.0284 H       1  LIG11       0.0235
     59 H           3.5087  -17.0424   -7.0968 H       1  LIG11       0.0263
     60 H           1.8954  -16.4951   -7.5507 H       1  LIG11       0.0263
     61 H           6.7623  -11.2761   -5.0684 H       1  LIG11       0.0464
     62 H           6.1783  -10.3305   -6.4321 H       1  LIG11       0.0464
     63 H           5.7225  -13.2260   -8.5296 H       1  LIG11       0.0464
     64 H           5.8084  -11.4600   -8.5053 H       1  LIG11       0.0464
     65 H           2.8703  -19.3909   -7.6425 H       1  LIG11       0.0230
     66 H           2.6584  -18.3048   -9.0263 H       1  LIG11       0.0230
     67 H           1.2460  -18.8375   -8.0991 H       1  LIG11       0.0230
     68 H           6.3507  -21.7473   -0.2431 H       1  LIG11       0.1166
     69 H           5.0543  -22.0214   -1.4330 H       1  LIG11       0.1166
     70 H           1.6162  -18.3817    2.9240 H       1  LIG11       0.0660
     71 H           1.5284  -17.3913    1.4621 H       1  LIG11       0.0660
     72 H           2.8672  -17.1626    2.6543 H       1  LIG11       0.0660
     73 H           8.0111  -11.1563   -7.8573 H       1  LIG11       0.0280
     74 H           8.5255  -12.3144   -6.6461 H       1  LIG11       0.0280
     75 H           3.5175  -11.4324   -7.3731 H       1  LIG11       0.0280
     76 H           3.4042  -13.1617   -7.6486 H       1  LIG11       0.0280
     77 H           8.5570   -9.2822   -6.1745 H       1  LIG11       0.0263
     78 H           9.8997  -10.1626   -6.8984 H       1  LIG11       0.0263
     79 H           3.6773  -11.0028   -9.8070 H       1  LIG11       0.0263
     80 H           2.2051  -11.8623   -9.3698 H       1  LIG11       0.0263
     81 H           8.7880  -10.6817   -4.0945 H       1  LIG11       0.0230
     82 H          10.3086   -9.8751   -4.5056 H       1  LIG11       0.0230
     83 H          10.0989  -11.5947   -4.8665 H       1  LIG11       0.0230
     84 H           4.6944  -13.1026  -10.6500 H       1  LIG11       0.0230
     85 H           3.1145  -12.8505  -11.3970 H       1  LIG11       0.0230
     86 H           3.2895  -14.0328  -10.0882 H       1  LIG11       0.0230
@<TRIPOS>BOND
     1     1     2    1
     2     1     3    1
     3     1     4    1
     4     2     5    1
     5     2     6    1
     6     3     8    1
     7     3     7    1
     8     4    10   ar
     9     4     9   ar
    10     5     8    1
    11     5    11    1
    12     6    12    1
    13     7    14   ar
    14     7    13   ar
    15    11    15    1
    16    12    18    1
    17    12    17    1
    18    12    16    1
    19    13    19   ar
    20    14    20   ar
    21    15    22    2
    22    15    21   am
    23    16    23    1
    24    19    25    1
    25    19    24   ar
    26    20    24   ar
    27    20    26    1
    28    21    28    1
    29    21    27    1
    30    23    29    1
    31    24    30    1
    32    25    31    1
    33    26    32    1
    34    27    33    1
    35    28    34    1
    36    30    31    1
    37    33    35    1
    38    34    36    1
    39    35    37    1
    40    36    38    1
    41     1    39    1
    42     2    40    1
    43     3    41    1
    44     5    42    1
    45     6    43    1
    46     6    44    1
    47     8    45    1
    48     8    46    1
    49    11    47    1
    50    11    48    1
    51    13    49    1
    52    14    50    1
    53    16    51    1
    54    16    52    1
    55    17    53    1
    56    17    54    1
    57    17    55    1
    58    18    56    1
    59    18    57    1
    60    18    58    1
    61    23    59    1
    62    23    60    1
    63    27    61    1
    64    27    62    1
    65    28    63    1
    66    28    64    1
    67    29    65    1
    68    29    66    1
    69    29    67    1
    70    31    68    1
    71    31    69    1
    72    32    70    1
    73    32    71    1
    74    32    72    1
    75    33    73    1
    76    33    74    1
    77    34    75    1
    78    34    76    1
    79    35    77    1
    80    35    78    1
    81    36    79    1
    82    36    80    1
    83    37    81    1
    84    37    82    1
    85    37    83    1
    86    38    84    1
    87    38    85    1
    88    38    86    1
@<TRIPOS>MOLECULE
../1EDN/XRAY_17-21.pdb
 47 48 0 0 0
SMALL
GASTEIGER

@<TRIPOS>ATOM
      1  N          6.4500  -19.7300   -2.8460 N.3    17  LEU17      -0.1231
      2  CA         5.2640  -20.1680   -2.1160 C.3    17  LEU17       0.1693
      3  C          4.7010  -18.8060   -1.6720 C.2    17  LEU17       0.2592
      4  O          4.3760  -17.9800   -2.5270 O.2    17  LEU17      -0.2718
      5  CB         5.6570  -21.0170   -0.8850 C.3    17  LEU17       0.0284
      6  CG         5.4050  -22.5400   -0.8470 C.3    17  LEU17       0.0019
      7  CD1        6.1110  -23.2140    0.3150 C.3    17  LEU17       0.0001
      8  CD2        3.9240  -22.7940   -0.7690 C.3    17  LEU17       0.0001
      9  N          4.7270  -18.4910   -0.3800 N.am   18  ASP18      -0.1962
     10  CA         4.1720  -17.2010    0.0630 C.3    18  ASP18       0.1783
     11  C          4.7750  -15.8130   -0.3500 C.2    18  ASP18       0.2620
     12  O          4.1570  -14.7710   -0.0750 O.2    18  ASP18      -0.2715
     13  CB         3.8720  -17.2370    1.5730 C.3    18  ASP18       0.0728
     14  CG         2.4440  -17.7210    1.8880 C.2    18  ASP18       0.0526
     15  OD1        1.8320  -18.4410    1.0660 O.co2  18  ASP18      -0.5491
     16  OD2        1.9260  -17.3730    2.9700 O.co2  18  ASP18      -0.5491
     17  N          5.9570  -15.7420   -0.9630 N.am   19  ILE19      -0.1963
     18  CA         6.4450  -14.4030   -1.3510 C.3    19  ILE19       0.1727
     19  C          5.5760  -13.9960   -2.5290 C.2    19  ILE19       0.2616
     20  O          4.8370  -13.0080   -2.4770 O.2    19  ILE19      -0.2715
     21  CB         7.9140  -14.3690   -1.8400 C.3    19  ILE19       0.0290
     22  CG1        8.8760  -14.8240   -0.7490 C.3    19  ILE19       0.0022
     23  CG2        8.2810  -12.9320   -2.2380 C.3    19  ILE19       0.0023
     24  CD1        9.3280  -13.7050    0.1860 C.3    19  ILE19       0.0001
     25  N          5.7170  -14.7750   -3.5990 N.am   20  ILE20      -0.1963
     26  CA         4.9770  -14.6140   -4.8450 C.3    20  ILE20       0.1727
     27  C          4.7560  -16.0550   -5.2510 C.2    20  ILE20       0.2615
     28  O          5.5820  -16.9240   -4.9410 O.2    20  ILE20      -0.2715
     29  CB         5.8140  -13.8870   -5.9550 C.3    20  ILE20       0.0290
     30  CG1        5.9530  -12.3980   -5.6400 C.3    20  ILE20       0.0022
     31  CG2        5.1640  -14.0490   -7.3150 C.3    20  ILE20       0.0023
     32  CD1        6.8340  -11.6390   -6.6010 C.3    20  ILE20       0.0001
     33  N          3.6520  -16.3070   -5.9350 N.am   21  TRP21      -0.1988
     34  CA         3.3300  -17.6370   -6.4010 C.3    21  TRP21       0.1456
     35  C          2.5650  -17.6270   -7.7180 C.2    21  TRP21       0.1166
     36  O          1.8980  -18.6320   -8.0750 O.co2  21  TRP21      -0.3065
     37  CB         2.6690  -18.5180   -5.3120 C.3    21  TRP21       0.0562
     38  CG         1.5690  -17.9980   -4.3600 C.ar   21  TRP21       0.0005
     39  CD1        0.7990  -18.7930   -3.5490 C.ar   21  TRP21       0.0946
     40  CD2        1.2480  -16.6350   -3.9890 C.ar   21  TRP21       0.0152
     41  CE2        0.3020  -16.7070   -2.9250 C.ar   21  TRP21       0.0810
     42  CE3        1.6680  -15.3700   -4.4360 C.ar   21  TRP21       0.0012
     43  NE1        0.0520  -18.0350   -2.6840 N.ar   21  TRP21      -0.2442
     44  CZ2       -0.2230  -15.5590   -2.2950 C.ar   21  TRP21       0.0191
     45  CZ3        1.1420  -14.2140   -3.8060 C.ar   21  TRP21       0.0001
     46  CH2        0.2070  -14.3240   -2.7450 C.ar   21  TRP21       0.0015
     47  OXT        2.7400  -16.6140   -8.4280 O.co2  21  TRP21      -0.8460
@<TRIPOS>BOND
     1    47    35   ar
     2    36    35   ar
     3    35    34    1
     4    31    29    1
     5    32    30    1
     6    34    33    1
     7    34    37    1
     8    29    30    1
     9    29    26    1
    10    33    27   am
    11    37    38    1
    12    27    28    2
    13    27    26    1
    14    26    25    1
    15    42    40   ar
    16    42    45   ar
    17    38    40   ar
    18    38    39   ar
    19    40    41   ar
    20    45    46   ar
    21    25    19   am
    22    39    43   ar
    23    41    43   ar
    24    41    44   ar
    25     1     2    1
    26    46    44   ar
    27    19    20    2
    28    19    18    1
    29     4     3    2
    30    23    21    1
    31     2     3    1
    32     2     5    1
    33    21    18    1
    34    21    22    1
    35     3     9   am
    36    18    17    1
    37    17    11   am
    38     5     6    1
    39     6     8    1
    40     6     7    1
    41    22    24    1
    42     9    10    1
    43    11    12    2
    44    11    10    1
    45    10    13    1
    46    15    14   ar
    47    13    14    1
    48    14    16   ar
