@<TRIPOS>MOLECULE
HTS1204-03362316-01
 87 90 0 0 0
SMALL
USER_CHARGES

@<TRIPOS>ATOM
      1 C1          2.4819  -21.3868   -1.0055 C.ar    1  UNK11      -0.0199
      2 N1          2.3800  -22.3607    1.0017 N.ar    1  UNK11      -0.3494
      3 C2          5.1448  -14.6923   -1.2599 C.2     1  UNK11       0.3028
      4 C3          1.6442  -21.7150    0.0451 C.ar    1  UNK11       0.0086
      5 C4          1.0801  -18.6653   -3.3991 C.2     1  UNK11       0.2342
      6 C5          3.7793  -21.8984   -0.6677 C.ar    1  UNK11       0.0031
      7 C6          4.0740  -18.3054   -1.8704 C.2     1  UNK11       0.2340
      8 C7          3.6947  -22.4704    0.6051 C.ar    1  UNK11       0.0491
      9 N2          4.5479  -15.8984   -1.2417 N.am    1  UNK11      -0.2879
     10 N3          6.4867  -14.5044   -1.4963 N.am    1  UNK11      -0.2856
     11 N4          2.7399  -18.2561   -1.5601 N.am    1  UNK11      -0.3022
     12 N5          1.9113  -17.8970   -4.1851 N.am    1  UNK11      -0.3054
     13 C8          1.7118  -19.1811   -2.0882 C.3     1  UNK11       0.1034
     14 C9          5.0012  -17.2828   -1.1820 C.3     1  UNK11       0.1011
     15 C10         1.3392  -16.7931   -4.9809 C.3     1  UNK11       0.0680
     16 C11         2.0871  -20.6672   -2.2683 C.3     1  UNK11       0.0013
     17 C12         1.1261  -15.4991   -4.1276 C.2     1  UNK11       0.0623
     18 C13         2.2028  -16.4793   -6.2095 C.3     1  UNK11       0.0133
     19 O1          4.3996  -13.7300   -1.0466 O.2     1  UNK11      -0.2526
     20 O2          4.5598  -19.1720   -2.5962 O.2     1  UNK11      -0.2738
     21 O3         -0.0398  -19.0296   -3.7593 O.2     1  UNK11      -0.2738
     22 N6          4.5894  -17.0362   -6.0886 N.ar    1  UNK11      -0.2598
     23 O4          1.5169  -15.5976   -2.9150 O.co2   1  UNK11      -0.5479
     24 C14         5.4603  -17.7458    0.2243 C.3     1  UNK11      -0.0236
     25 C15         3.6348  -16.0842   -5.9168 C.ar    1  UNK11       0.0434
     26 O5          0.6280  -14.5111   -4.7410 O.co2   1  UNK11      -0.5479
     27 C16         1.8523  -22.8519    2.2534 C.3     1  UNK11       0.0119
     28 C17         7.5084  -15.5262   -1.7365 C.3     1  UNK11       0.0161
     29 C18         6.9233  -13.1122   -1.6241 C.3     1  UNK11       0.0161
     30 C19         4.8161  -23.0115    1.2584 C.ar    1  UNK11      -0.0376
     31 C20         5.0285  -21.9145   -1.3235 C.ar    1  UNK11      -0.0523
     32 C21         4.5632  -17.6573    1.4800 C.3     1  UNK11      -0.0446
     33 C22         5.8673  -16.6960   -5.8183 C.ar    1  UNK11       0.0279
     34 C23         3.9495  -14.7931   -5.5004 C.ar    1  UNK11      -0.0403
     35 C24         3.6102  -18.8358    1.6397 C.3     1  UNK11      -0.0626
     36 C25         3.8281  -16.3366    1.6654 C.3     1  UNK11      -0.0626
     37 C26         8.9667  -15.0526   -1.7572 C.3     1  UNK11      -0.0371
     38 C27         7.6666  -12.6106   -0.3858 C.3     1  UNK11      -0.0371
     39 C28         6.1531  -22.4407   -0.6817 C.ar    1  UNK11      -0.0611
     40 C29         6.0471  -22.9753    0.5966 C.ar    1  UNK11      -0.0598
     41 C30         6.2597  -15.4364   -5.4025 C.ar    1  UNK11      -0.0436
     42 C31         5.2777  -14.4696   -5.2377 C.ar    1  UNK11      -0.0586
     43 C32         9.4659  -14.4654   -0.4344 C.3     1  UNK11      -0.0516
     44 C33         8.4522  -13.6701    0.3855 C.3     1  UNK11      -0.0516
     45 H           0.5866  -21.5291    0.1809 H       1  UNK11       0.0812
     46 H           3.5412  -15.7450   -1.2602 H       1  UNK11       0.1510
     47 H           2.3679  -17.3382   -1.3253 H       1  UNK11       0.1495
     48 H           2.7469  -17.5862   -3.7062 H       1  UNK11       0.1494
     49 H           0.9070  -19.1127   -1.3430 H       1  UNK11       0.0598
     50 H           5.8803  -17.3342   -1.8262 H       1  UNK11       0.0595
     51 H           0.3441  -17.1047   -5.3233 H       1  UNK11       0.0564
     52 H           2.8596  -20.7865   -3.0350 H       1  UNK11       0.0337
     53 H           1.2155  -21.1996   -2.6766 H       1  UNK11       0.0337
     54 H           1.7416  -15.6948   -6.8218 H       1  UNK11       0.0350
     55 H           2.2296  -17.3747   -6.8459 H       1  UNK11       0.0350
     56 H           6.3490  -17.1599    0.4852 H       1  UNK11       0.0290
     57 H           5.8199  -18.7808    0.1379 H       1  UNK11       0.0290
     58 H           0.7643  -22.7511    2.2591 H       1  UNK11       0.0456
     59 H           2.2870  -22.2622    3.0647 H       1  UNK11       0.0456
     60 H           2.1215  -23.9066    2.3557 H       1  UNK11       0.0456
     61 H           7.2802  -15.9902   -2.7006 H       1  UNK11       0.0465
     62 H           7.4387  -16.2840   -0.9612 H       1  UNK11       0.0465
     63 H           6.0776  -12.4408   -1.8148 H       1  UNK11       0.0465
     64 H           7.5373  -13.0166   -2.5257 H       1  UNK11       0.0465
     65 H           4.7405  -23.4344    2.2539 H       1  UNK11       0.0638
     66 H           5.1251  -21.4965   -2.3217 H       1  UNK11       0.0624
     67 H           5.2582  -17.7383    2.3297 H       1  UNK11       0.0296
     68 H           6.5910  -17.4944   -5.9475 H       1  UNK11       0.0829
     69 H           3.1702  -14.0468   -5.3651 H       1  UNK11       0.0635
     70 H           2.7965  -18.8138    0.9154 H       1  UNK11       0.0232
     71 H           3.1563  -18.8277    2.6374 H       1  UNK11       0.0232
     72 H           4.1517  -19.7795    1.5413 H       1  UNK11       0.0232
     73 H           3.0141  -16.2189    0.9450 H       1  UNK11       0.0232
     74 H           4.5153  -15.4897    1.5749 H       1  UNK11       0.0232
     75 H           3.3844  -16.2875    2.6663 H       1  UNK11       0.0232
     76 H           9.1296  -14.3313   -2.5653 H       1  UNK11       0.0280
     77 H           9.6062  -15.9079   -2.0117 H       1  UNK11       0.0280
     78 H           6.9325  -12.1776    0.3060 H       1  UNK11       0.0280
     79 H           8.3305  -11.7886   -0.6785 H       1  UNK11       0.0280
     80 H           7.1128  -22.4193   -1.1904 H       1  UNK11       0.0618
     81 H           6.9323  -23.3717    1.0864 H       1  UNK11       0.0618
     82 H           7.3001  -15.2188   -5.1988 H       1  UNK11       0.0633
     83 H           5.5298  -13.4717   -4.8923 H       1  UNK11       0.0619
     84 H          10.3406  -13.8367   -0.6412 H       1  UNK11       0.0266
     85 H           9.8295  -15.2874    0.1958 H       1  UNK11       0.0266
     86 H           7.7482  -14.3660    0.8605 H       1  UNK11       0.0266
     87 H           8.9793  -13.1811    1.2142 H       1  UNK11       0.0266
@<TRIPOS>BOND
     1     2     4   ar
     2     3     9   am
     3     1     4   ar
     4     5    13    1
     5     1     6   ar
     6     7    11   am
     7     6     8   ar
     8     9    14    1
     9     3    10   am
    10    11    13    1
    11     5    12   am
    12    13    16    1
    13     7    14    1
    14    12    15    1
    15     1    16    1
    16    15    17    1
    17    15    18    1
    18     3    19    2
    19     7    20    2
    20     5    21    2
    21    22    25   ar
    22    17    23   ar
    23    14    24    1
    24    18    25    1
    25    17    26   ar
    26     2    27    1
    27    10    28    1
    28    10    29    1
    29     8    30   ar
    30     6    31   ar
    31    24    32    1
    32    22    33   ar
    33    25    34   ar
    34    32    35    1
    35    32    36    1
    36    28    37    1
    37    29    38    1
    38    31    39   ar
    39    39    40   ar
    40    41    42   ar
    41    34    42   ar
    42    37    43    1
    43    38    44    1
    44     2     8   ar
    45    30    40   ar
    46    33    41   ar
    47    43    44    1
    48     4    45    1
    49     9    46    1
    50    11    47    1
    51    12    48    1
    52    13    49    1
    53    14    50    1
    54    15    51    1
    55    16    52    1
    56    16    53    1
    57    18    54    1
    58    18    55    1
    59    24    56    1
    60    24    57    1
    61    27    58    1
    62    27    59    1
    63    27    60    1
    64    28    61    1
    65    28    62    1
    66    29    63    1
    67    29    64    1
    68    30    65    1
    69    31    66    1
    70    32    67    1
    71    33    68    1
    72    34    69    1
    73    35    70    1
    74    35    71    1
    75    35    72    1
    76    36    73    1
    77    36    74    1
    78    36    75    1
    79    37    76    1
    80    37    77    1
    81    38    78    1
    82    38    79    1
    83    39    80    1
    84    40    81    1
    85    41    82    1
    86    42    83    1
    87    43    84    1
    88    43    85    1
    89    44    86    1
    90    44    87    1
@<TRIPOS>MOLECULE
../1EDN/XRAY_17-21.pdb
 47 48 0 0 0
SMALL
GASTEIGER

@<TRIPOS>ATOM
      1  N          6.4500  -19.7300   -2.8460 N.3    17  LEU17      -0.1231
      2  CA         5.2640  -20.1680   -2.1160 C.3    17  LEU17       0.1693
      3  C          4.7010  -18.8060   -1.6720 C.2    17  LEU17       0.2592
      4  O          4.3760  -17.9800   -2.5270 O.2    17  LEU17      -0.2718
      5  CB         5.6570  -21.0170   -0.8850 C.3    17  LEU17       0.0284
      6  CG         5.4050  -22.5400   -0.8470 C.3    17  LEU17       0.0019
      7  CD1        6.1110  -23.2140    0.3150 C.3    17  LEU17       0.0001
      8  CD2        3.9240  -22.7940   -0.7690 C.3    17  LEU17       0.0001
      9  N          4.7270  -18.4910   -0.3800 N.am   18  ASP18      -0.1962
     10  CA         4.1720  -17.2010    0.0630 C.3    18  ASP18       0.1783
     11  C          4.7750  -15.8130   -0.3500 C.2    18  ASP18       0.2620
     12  O          4.1570  -14.7710   -0.0750 O.2    18  ASP18      -0.2715
     13  CB         3.8720  -17.2370    1.5730 C.3    18  ASP18       0.0728
     14  CG         2.4440  -17.7210    1.8880 C.2    18  ASP18       0.0526
     15  OD1        1.8320  -18.4410    1.0660 O.co2  18  ASP18      -0.5491
     16  OD2        1.9260  -17.3730    2.9700 O.co2  18  ASP18      -0.5491
     17  N          5.9570  -15.7420   -0.9630 N.am   19  ILE19      -0.1963
     18  CA         6.4450  -14.4030   -1.3510 C.3    19  ILE19       0.1727
     19  C          5.5760  -13.9960   -2.5290 C.2    19  ILE19       0.2616
     20  O          4.8370  -13.0080   -2.4770 O.2    19  ILE19      -0.2715
     21  CB         7.9140  -14.3690   -1.8400 C.3    19  ILE19       0.0290
     22  CG1        8.8760  -14.8240   -0.7490 C.3    19  ILE19       0.0022
     23  CG2        8.2810  -12.9320   -2.2380 C.3    19  ILE19       0.0023
     24  CD1        9.3280  -13.7050    0.1860 C.3    19  ILE19       0.0001
     25  N          5.7170  -14.7750   -3.5990 N.am   20  ILE20      -0.1963
     26  CA         4.9770  -14.6140   -4.8450 C.3    20  ILE20       0.1727
     27  C          4.7560  -16.0550   -5.2510 C.2    20  ILE20       0.2615
     28  O          5.5820  -16.9240   -4.9410 O.2    20  ILE20      -0.2715
     29  CB         5.8140  -13.8870   -5.9550 C.3    20  ILE20       0.0290
     30  CG1        5.9530  -12.3980   -5.6400 C.3    20  ILE20       0.0022
     31  CG2        5.1640  -14.0490   -7.3150 C.3    20  ILE20       0.0023
     32  CD1        6.8340  -11.6390   -6.6010 C.3    20  ILE20       0.0001
     33  N          3.6520  -16.3070   -5.9350 N.am   21  TRP21      -0.1988
     34  CA         3.3300  -17.6370   -6.4010 C.3    21  TRP21       0.1456
     35  C          2.5650  -17.6270   -7.7180 C.2    21  TRP21       0.1166
     36  O          1.8980  -18.6320   -8.0750 O.co2  21  TRP21      -0.3065
     37  CB         2.6690  -18.5180   -5.3120 C.3    21  TRP21       0.0562
     38  CG         1.5690  -17.9980   -4.3600 C.ar   21  TRP21       0.0005
     39  CD1        0.7990  -18.7930   -3.5490 C.ar   21  TRP21       0.0946
     40  CD2        1.2480  -16.6350   -3.9890 C.ar   21  TRP21       0.0152
     41  CE2        0.3020  -16.7070   -2.9250 C.ar   21  TRP21       0.0810
     42  CE3        1.6680  -15.3700   -4.4360 C.ar   21  TRP21       0.0012
     43  NE1        0.0520  -18.0350   -2.6840 N.ar   21  TRP21      -0.2442
     44  CZ2       -0.2230  -15.5590   -2.2950 C.ar   21  TRP21       0.0191
     45  CZ3        1.1420  -14.2140   -3.8060 C.ar   21  TRP21       0.0001
     46  CH2        0.2070  -14.3240   -2.7450 C.ar   21  TRP21       0.0015
     47  OXT        2.7400  -16.6140   -8.4280 O.co2  21  TRP21      -0.8460
@<TRIPOS>BOND
     1    47    35   ar
     2    36    35   ar
     3    35    34    1
     4    31    29    1
     5    32    30    1
     6    34    33    1
     7    34    37    1
     8    29    30    1
     9    29    26    1
    10    33    27   am
    11    37    38    1
    12    27    28    2
    13    27    26    1
    14    26    25    1
    15    42    40   ar
    16    42    45   ar
    17    38    40   ar
    18    38    39   ar
    19    40    41   ar
    20    45    46   ar
    21    25    19   am
    22    39    43   ar
    23    41    43   ar
    24    41    44   ar
    25     1     2    1
    26    46    44   ar
    27    19    20    2
    28    19    18    1
    29     4     3    2
    30    23    21    1
    31     2     3    1
    32     2     5    1
    33    21    18    1
    34    21    22    1
    35     3     9   am
    36    18    17    1
    37    17    11   am
    38     5     6    1
    39     6     8    1
    40     6     7    1
    41    22    24    1
    42     9    10    1
    43    11    12    2
    44    11    10    1
    45    10    13    1
    46    15    14   ar
    47    13    14    1
    48    14    16   ar
