@<TRIPOS>MOLECULE
scripts/ET1_17-21_50CONFORMERS_NOBACKBONE.pdb
 26 23 0 0 0
SMALL
GASTEIGER

@<TRIPOS>ATOM
      1  CB        -5.7510   -1.5250   -0.1230 C.3    17  LEU17       0.0000
      2  CG        -6.9360   -2.4800   -0.0490 C.3    17  LEU17       0.0000
      3  CD1       -6.9990   -3.5020   -1.2170 C.3    17  LEU17       0.0000
      4  CD2       -6.8230   -3.3060    1.2660 C.3    17  LEU17       0.0000
      5  CB        -9.2260    1.5060    1.0930 C.3    18  ASP18       0.1258
      6  CG       -10.5200    2.2960    1.1820 C.2    18  ASP18       0.3654
      7  OD1      -11.0230    2.3860    2.3020 O.co2  18  ASP18      -0.2456
      8  OD2      -11.1260    2.6690    0.1790 O.co2  18  ASP18      -0.2456
      9  CB        -4.7970    4.5340    2.6700 C.3    19  ILE19       0.0000
     10  CG2       -3.8740    5.7960    3.0190 C.3    19  ILE19       0.0000
     11  CG1       -5.4380    4.0490    3.9890 C.3    19  ILE19       0.0000
     12  CD1       -6.2590    5.1130    4.7510 C.3    19  ILE19       0.0000
     13  CB        -3.0810    5.6960   -2.4070 C.3    20  ILE20       0.0000
     14  CG2       -2.8670    7.0700   -1.9600 C.3    20  ILE20       0.0000
     15  CG1       -1.9760    4.8870   -1.7410 C.3    20  ILE20       0.0000
     16  CD1       -0.6990    4.8690   -2.6260 C.3    20  ILE20       0.0000
     17  CB        -6.9870    2.6630   -5.1200 C.3    21  TRP21       0.0066
     18  CG        -7.9410    3.7070   -5.2970 C.3    21  TRP21       0.0452
     19  CD1       -8.4750    4.4270   -4.3030 C.3    21  TRP21       0.1165
     20  NE1       -9.4180    5.2590   -4.8230 N.pl3  21  TRP21      -0.2376
     21  CE2       -9.6360    5.0990   -6.2080 C.ar   21  TRP21       0.0614
     22  CZ2      -10.4600    5.7020   -7.1940 C.ar   21  TRP21       0.0158
     23  CH2      -10.4100    5.2740   -8.5240 C.ar   21  TRP21       0.0013
     24  CZ3       -9.5380    4.1400   -8.8580 C.ar   21  TRP21      -0.0002
     25  CE3       -8.6300    3.6350   -7.8680 C.ar   21  TRP21      -0.0030
     26  CD2       -8.6730    4.1150   -6.5070 C.ar   21  TRP21      -0.0059
@<TRIPOS>BOND
     1    22    23   ar
     2    22    21   ar
     3    23    24   ar
     4    21    20    1
     5    21    26   ar
     6    24    25   ar
     7    20    19    1
     8    25    26   ar
     9    26    18    1
    10    19    18    1
    11    18    17    1
    12     3     2    1
    13     2     4    1
    14     2     1    1
    15     5     6    1
    16     7     6   ar
    17    13    15    1
    18    13    14    1
    19    15    16    1
    20     6     8   ar
    21     9    11    1
    22     9    10    1
    23    11    12    1
@<TRIPOS>MOLECULE
scripts/BOSENTAN_50CONFORMERS.pdb
 39 42 0 0 0
SMALL
GASTEIGER

@<TRIPOS>ATOM
      1  S1       -10.3080    5.6346   -0.7594 S.O2    1  LGD1        0.0943
      2  O2       -10.9374    6.9467   -0.8005 O.2     1  LGD1       -0.1483
      3  O3       -11.1849    4.3984   -0.7684 O.2     1  LGD1       -0.1483
      4  O4        -9.0664    5.2034   -4.8908 O.3     1  LGD1       -0.4427
      5  O5        -7.2665    7.1356   -6.1701 O.3     1  LGD1       -0.4552
      6  O6       -11.5180    6.5625   -5.7308 O.3     1  LGD1       -0.4684
      7  O7        -5.0716    7.6122   -8.7230 O.3     1  LGD1       -0.2162
      8  N8        -9.4201    5.4495   -2.2106 N.pl3   1  LGD1       -0.0737
      9  N9        -7.6741    7.1228   -2.0545 N.ar    1  LGD1       -0.2027
     10  N10       -6.7445    8.0805   -4.0513 N.ar    1  LGD1       -0.1866
     11  N11       -4.5980    8.7545   -1.8919 N.ar    1  LGD1       -0.2224
     12  N12       -6.6753    9.5489   -0.8397 N.ar    1  LGD1       -0.2224
     13  C13       -5.6403    4.9174    3.1939 C.3     1  LGD1        0.0189
     14  C14       -6.7392    5.1708    2.2033 C.ar    1  LGD1       -0.0227
     15  C15       -5.2050    3.4796    3.4837 C.3     1  LGD1        0.0044
     16  C16       -5.9906    5.4079    4.6310 C.3     1  LGD1        0.0044
     17  C17       -4.3383    5.7231    2.8400 C.3     1  LGD1        0.0044
     18  C18       -7.3632    6.4217    2.0254 C.ar    1  LGD1       -0.0029
     19  C19       -7.2926    4.0920    1.4343 C.ar    1  LGD1       -0.0029
     20  C20       -8.9431    5.5527    0.4062 C.ar    1  LGD1        0.1271
     21  C21       -8.4583    6.6303    1.1210 C.ar    1  LGD1        0.0199
     22  C22       -8.4139    4.2699    0.5894 C.ar    1  LGD1        0.0199
     23  C23       -8.5453    6.3663   -2.7678 C.ar    1  LGD1        0.2125
     24  C24       -8.3781    6.2639   -4.1591 C.ar    1  LGD1        0.2327
     25  C25       -7.4497    7.1546   -4.7939 C.ar    1  LGD1        0.2651
     26  C26       -6.8737    8.0136   -2.6737 C.ar    1  LGD1        0.2028
     27  C27       -9.4713    5.2549   -6.1950 C.ar    1  LGD1        0.1793
     28  C28       -5.9402    8.8147   -1.7032 C.ar    1  LGD1        0.1990
     29  C29       -6.6419    8.2794   -6.8295 C.3     1  LGD1        0.2426
     30  C30      -10.6856    5.8431   -6.5977 C.ar    1  LGD1        0.1730
     31  C31       -8.7669    4.4348   -7.1065 C.ar    1  LGD1        0.0406
     32  C32      -11.0993    5.7448   -7.9542 C.ar    1  LGD1        0.0401
     33  C33       -6.4317    8.0713   -8.3783 C.3     1  LGD1        0.2292
     34  C34       -9.2078    4.2620   -8.4200 C.ar    1  LGD1        0.0033
     35  C35      -10.3464    4.9809   -8.8301 C.ar    1  LGD1        0.0033
     36  C36       -3.8887    9.4751   -1.0378 C.ar    1  LGD1        0.1023
     37  C37       -5.9284   10.1789    0.0576 C.ar    1  LGD1        0.1023
     38  C38       -4.5703   10.0551    0.0087 C.ar    1  LGD1        0.0414
     39  C39      -12.0839    5.7638   -4.6431 C.3     1  LGD1        0.2526
@<TRIPOS>BOND
     1    33     7    1
     2    33    29    1
     3     5    29    1
     4     5    25    1
     5    10    25   ar
     6    10    26   ar
     7    36    11   ar
     8    36    38   ar
     9    11    28   ar
    10    25    24   ar
    11    38    37   ar
    12    34    31   ar
    13    34    35   ar
    14    28    26    1
    15    28    12   ar
    16    26     9   ar
    17    31    27   ar
    18    37    12   ar
    19    24     4    1
    20    24    23   ar
    21     4    27    1
    22    27    30   ar
    23    35    32   ar
    24    15    13    1
    25     9    23   ar
    26    23     8    1
    27    30    32   ar
    28    30     6    1
    29     6    39    1
    30     8     1    1
    31    18    14   ar
    32    18    21   ar
    33    13    14    1
    34    13    17    1
    35    13    16    1
    36    14    19   ar
    37    21    20   ar
    38    20     1    1
    39    20    22   ar
    40    19    22   ar
    41     1     2    2
    42     1     3    2
@<TRIPOS>MOLECULE
scripts/ET1_17-21_50CONFORMERS.pdb
 47 48 0 0 0
SMALL
GASTEIGER

@<TRIPOS>ATOM
      1  N         -4.5540    0.1150   -1.5620 N.3    17  LEU17      -0.1231
      2  CA        -5.8090   -0.5840   -1.3290 C.3    17  LEU17       0.1693
      3  CB        -5.7510   -1.5250   -0.1230 C.3    17  LEU17       0.0284
      4  CG        -6.9360   -2.4800   -0.0490 C.3    17  LEU17       0.0019
      5  CD1       -6.9990   -3.5020   -1.2170 C.3    17  LEU17       0.0001
      6  CD2       -6.8230   -3.3060    1.2660 C.3    17  LEU17       0.0001
      7  C         -7.0240    0.3700   -1.1890 C.2    17  LEU17       0.2592
      8  O         -7.9580    0.3830   -2.0460 O.2    17  LEU17      -0.2718
      9  N         -7.1070    1.2040   -0.1500 N.am   18  ASP18      -0.1960
     10  CA        -8.2350    2.1390    0.0890 C.3    18  ASP18       0.1840
     11  CB        -9.2260    1.5060    1.0930 C.3    18  ASP18       0.1450
     12  CG       -10.5200    2.2960    1.1820 C.2    18  ASP18       0.3671
     13  OD1      -11.0230    2.3860    2.3020 O.co2  18  ASP18      -0.2456
     14  OD2      -11.1260    2.6690    0.1790 O.co2  18  ASP18      -0.2456
     15  C         -7.7820    3.5170    0.6000 C.2    18  ASP18       0.2622
     16  O         -8.4670    4.4960    0.4940 O.2    18  ASP18      -0.2715
     17  N         -6.5810    3.5870    1.2050 N.am   19  ILE19      -0.1963
     18  CA        -5.8740    4.8100    1.5590 C.3    19  ILE19       0.1727
     19  CB        -4.7970    4.5340    2.6700 C.3    19  ILE19       0.0290
     20  CG2       -3.8740    5.7960    3.0190 C.3    19  ILE19       0.0023
     21  CG1       -5.4380    4.0490    3.9890 C.3    19  ILE19       0.0022
     22  CD1       -6.2590    5.1130    4.7510 C.3    19  ILE19       0.0001
     23  C         -5.3420    5.6110    0.2930 C.2    19  ILE19       0.2616
     24  O         -5.6040    6.8160    0.2240 O.2    19  ILE19      -0.2715
     25  N         -4.6690    4.9230   -0.6700 N.am   20  ILE20      -0.1963
     26  CA        -4.5290    5.1760   -2.1090 C.3    20  ILE20       0.1727
     27  CB        -3.0810    5.6960   -2.4070 C.3    20  ILE20       0.0290
     28  CG2       -2.8670    7.0700   -1.9600 C.3    20  ILE20       0.0023
     29  CG1       -1.9760    4.8870   -1.7410 C.3    20  ILE20       0.0022
     30  CD1       -0.6990    4.8690   -2.6260 C.3    20  ILE20       0.0001
     31  C         -4.8930    3.9330   -2.9630 C.2    20  ILE20       0.2617
     32  O         -4.8870    2.8220   -2.4580 O.2    20  ILE20      -0.2715
     33  N         -5.1960    4.1430   -4.2260 N.am   21  TRP21      -0.1941
     34  CA        -5.5430    3.1210   -5.2240 C.3    21  TRP21       0.1982
     35  CB        -6.9870    2.6630   -5.1200 C.3    21  TRP21       0.0394
     36  CG        -7.9410    3.7070   -5.2970 C.3    21  TRP21       0.0475
     37  CD1       -8.4750    4.4270   -4.3030 C.3    21  TRP21       0.1166
     38  NE1       -9.4180    5.2590   -4.8230 N.pl3  21  TRP21      -0.2376
     39  CE2       -9.6360    5.0990   -6.2080 C.ar   21  TRP21       0.0614
     40  CZ2      -10.4600    5.7020   -7.1940 C.ar   21  TRP21       0.0158
     41  CH2      -10.4100    5.2740   -8.5240 C.ar   21  TRP21       0.0013
     42  CZ3       -9.5380    4.1400   -8.8580 C.ar   21  TRP21      -0.0002
     43  CE3       -8.6300    3.6350   -7.8680 C.ar   21  TRP21      -0.0030
     44  CD2       -8.6730    4.1150   -6.5070 C.ar   21  TRP21      -0.0059
     45  C         -5.3080    3.5370   -6.6660 C.2    21  TRP21       0.3842
     46  O         -4.6170    2.7680   -7.3540 O.co2  21  TRP21      -0.2437
     47  OXT       -5.6540    4.7210   -7.0500 O.co2  21  TRP21      -0.2437
@<TRIPOS>BOND
     1    40    41   ar
     2    40    39   ar
     3    41    42   ar
     4    39    38    1
     5    39    44   ar
     6    42    43   ar
     7    38    37    1
     8    43    44   ar
     9    44    36    1
    10    37    36    1
    11    36    35    1
    12    47    45   ar
    13     5     4    1
    14    35    34    1
    15    45    34    1
    16    45    46   ar
    17    34    33    1
    18     8     7    2
    19     4     6    1
    20     4     3    1
    21     2     3    1
    22     2     1    1
    23     2     7    1
    24     7     9   am
    25    33    31   am
    26    32    31    2
    27    31    26    1
    28     9    10    1
    29    10    11    1
    30    10    15    1
    31    26    27    1
    32    26    25    1
    33    11    12    1
    34    13    12   ar
    35    27    29    1
    36    27    28    1
    37    29    30    1
    38    16    15    2
    39    15    17   am
    40    12    14   ar
    41    25    23   am
    42    17    18    1
    43    23    24    2
    44    23    18    1
    45    18    19    1
    46    19    21    1
    47    19    20    1
    48    21    22    1
