@<TRIPOS>MOLECULE
scripts/ET1_17-21_50CONFORMERS_NOBACKBONE.pdb
 26 23 0 0 0
SMALL
GASTEIGER

@<TRIPOS>ATOM
      1  CB        -6.0320   -1.7260   -1.1030 C.3    17  LEU17       0.0000
      2  CG        -7.0780   -2.6010   -1.6650 C.3    17  LEU17       0.0000
      3  CD1       -6.7850   -3.1800   -3.0690 C.3    17  LEU17       0.0000
      4  CD2       -7.3480   -3.7290   -0.7320 C.3    17  LEU17       0.0000
      5  CB        -8.8130    1.1140    1.2660 C.3    18  ASP18       0.1258
      6  CG       -10.2300    1.4980    1.6400 C.2    18  ASP18       0.3654
      7  OD1      -10.4900    2.2680    2.5970 O.co2  18  ASP18      -0.2456
      8  OD2      -11.1770    1.1770    0.8180 O.co2  18  ASP18      -0.2456
      9  CB        -4.8870    4.3750    2.7780 C.3    19  ILE19       0.0000
     10  CG2       -4.4050    5.6090    3.4770 C.3    19  ILE19       0.0000
     11  CG1       -5.2510    3.2630    3.8230 C.3    19  ILE19       0.0000
     12  CD1       -6.5040    3.5010    4.6160 C.3    19  ILE19       0.0000
     13  CB        -3.0410    5.9480   -1.7710 C.3    20  ILE20       0.0000
     14  CG2       -2.9160    7.1040   -0.8250 C.3    20  ILE20       0.0000
     15  CG1       -1.9950    4.8170   -1.4230 C.3    20  ILE20       0.0000
     16  CD1       -0.5500    5.1390   -1.9550 C.3    20  ILE20       0.0000
     17  CB        -7.9200    4.1250   -3.7570 C.3    21  TRP21       0.0066
     18  CG        -8.4250    5.4530   -3.3620 C.3    21  TRP21       0.0452
     19  CD1       -8.1190    6.0680   -2.2450 C.3    21  TRP21       0.1165
     20  NE1       -8.7560    7.2690   -2.1720 N.pl3  21  TRP21      -0.2376
     21  CE2       -9.5810    7.4730   -3.2750 C.ar   21  TRP21       0.0614
     22  CZ2      -10.4220    8.4750   -3.7020 C.ar   21  TRP21       0.0158
     23  CH2      -11.1680    8.3670   -4.9280 C.ar   21  TRP21       0.0013
     24  CZ3      -11.0860    7.1640   -5.6280 C.ar   21  TRP21      -0.0002
     25  CE3      -10.1730    6.1170   -5.2330 C.ar   21  TRP21      -0.0030
     26  CD2       -9.4090    6.2620   -4.0570 C.ar   21  TRP21      -0.0059
@<TRIPOS>BOND
     1    22    23   ar
     2    22    21   ar
     3    23    24   ar
     4    21    20    1
     5    21    26   ar
     6    24    25   ar
     7    20    19    1
     8    25    26   ar
     9    26    18    1
    10    19    18    1
    11    18    17    1
    12     3     2    1
    13     2     4    1
    14     2     1    1
    15     5     6    1
    16     7     6   ar
    17    13    15    1
    18    13    14    1
    19    15    16    1
    20     6     8   ar
    21     9    11    1
    22     9    10    1
    23    11    12    1
@<TRIPOS>MOLECULE
scripts/BOSENTAN_50CONFORMERS.pdb
 39 42 0 0 0
SMALL
GASTEIGER

@<TRIPOS>ATOM
      1  S1       -11.4927    0.4997   -5.7005 S.O2    1  LGD1        0.0943
      2  O2       -11.5581   -0.1876   -7.0397 O.2     1  LGD1       -0.1483
      3  O3       -12.7039    0.5923   -4.8283 O.2     1  LGD1       -0.1483
      4  O4       -10.7099    4.7928   -6.5111 O.3     1  LGD1       -0.4427
      5  O5        -8.4450    5.6030   -7.8147 O.3     1  LGD1       -0.4552
      6  O6        -8.6248    4.8597   -4.5354 O.3     1  LGD1       -0.4684
      7  O7        -7.3612    8.2796   -6.6886 O.3     1  LGD1       -0.2162
      8  N8       -11.0956    2.1094   -5.9502 N.pl3   1  LGD1       -0.0737
      9  N9        -8.9939    1.5830   -6.9306 N.ar    1  LGD1       -0.2027
     10  N10       -7.7066    3.3658   -8.0905 N.ar    1  LGD1       -0.1866
     11  N11       -7.2436    0.3735   -9.2670 N.ar    1  LGD1       -0.2224
     12  N12       -6.0212    0.8032   -7.1137 N.ar    1  LGD1       -0.2224
     13  C13       -7.2658   -2.0716   -2.2397 C.3     1  LGD1        0.0189
     14  C14       -8.2941   -1.3995   -3.1422 C.ar    1  LGD1       -0.0227
     15  C15       -6.1951   -2.9502   -2.9581 C.3     1  LGD1        0.0044
     16  C16       -6.4482   -1.1674   -1.3119 C.3     1  LGD1        0.0044
     17  C17       -7.7937   -3.1559   -1.2679 C.3     1  LGD1        0.0044
     18  C18       -9.3019   -0.5989   -2.5765 C.ar    1  LGD1       -0.0029
     19  C19       -8.3996   -1.6945   -4.5435 C.ar    1  LGD1       -0.0029
     20  C20      -10.1741   -0.1455   -4.7905 C.ar    1  LGD1        0.1271
     21  C21      -10.2113    0.0398   -3.4082 C.ar    1  LGD1        0.0199
     22  C22       -9.3206   -1.0720   -5.3978 C.ar    1  LGD1        0.0199
     23  C23       -9.9386    2.4956   -6.5456 C.ar    1  LGD1        0.2125
     24  C24       -9.7712    3.8187   -6.8740 C.ar    1  LGD1        0.2327
     25  C25       -8.6474    4.2369   -7.5859 C.ar    1  LGD1        0.2651
     26  C26       -7.9647    2.1021   -7.6385 C.ar    1  LGD1        0.2028
     27  C27      -10.5268    5.8746   -5.6614 C.ar    1  LGD1        0.1793
     28  C28       -7.0207    0.9710   -8.0463 C.ar    1  LGD1        0.1990
     29  C29       -7.0081    5.9119   -7.7671 C.3     1  LGD1        0.2426
     30  C30       -9.4655    5.9826   -4.7054 C.ar    1  LGD1        0.1730
     31  C31      -11.4123    6.9607   -5.8101 C.ar    1  LGD1        0.0406
     32  C32       -9.3271    7.1488   -3.9412 C.ar    1  LGD1        0.0401
     33  C33       -6.8861    7.5050   -7.8350 C.3     1  LGD1        0.2292
     34  C34      -11.2438    8.0803   -4.9723 C.ar    1  LGD1        0.0033
     35  C35      -10.2671    8.1948   -4.0165 C.ar    1  LGD1        0.0033
     36  C36       -6.3413   -0.5988   -9.5680 C.ar    1  LGD1        0.1023
     37  C37       -5.1414   -0.1531   -7.4336 C.ar    1  LGD1        0.1023
     38  C38       -5.2501   -0.8179   -8.6864 C.ar    1  LGD1        0.0414
     39  C39       -8.3903    4.4600   -3.1721 C.3     1  LGD1        0.2526
@<TRIPOS>BOND
     1    33     7    1
     2    33    29    1
     3     5    29    1
     4     5    25    1
     5    10    25   ar
     6    10    26   ar
     7    36    11   ar
     8    36    38   ar
     9    11    28   ar
    10    25    24   ar
    11    38    37   ar
    12    34    31   ar
    13    34    35   ar
    14    28    26    1
    15    28    12   ar
    16    26     9   ar
    17    31    27   ar
    18    37    12   ar
    19    24     4    1
    20    24    23   ar
    21     4    27    1
    22    27    30   ar
    23    35    32   ar
    24    15    13    1
    25     9    23   ar
    26    23     8    1
    27    30    32   ar
    28    30     6    1
    29     6    39    1
    30     8     1    1
    31    18    14   ar
    32    18    21   ar
    33    13    14    1
    34    13    17    1
    35    13    16    1
    36    14    19   ar
    37    21    20   ar
    38    20     1    1
    39    20    22   ar
    40    19    22   ar
    41     1     2    2
    42     1     3    2
@<TRIPOS>MOLECULE
scripts/ET1_17-21_50CONFORMERS.pdb
 47 48 0 0 0
SMALL
GASTEIGER

@<TRIPOS>ATOM
      1  N         -4.5390    0.2280   -1.6100 N.3    17  LEU17      -0.1231
      2  CA        -5.8680   -0.3980   -1.8940 C.3    17  LEU17       0.1693
      3  CB        -6.0320   -1.7260   -1.1030 C.3    17  LEU17       0.0284
      4  CG        -7.0780   -2.6010   -1.6650 C.3    17  LEU17       0.0019
      5  CD1       -6.7850   -3.1800   -3.0690 C.3    17  LEU17       0.0001
      6  CD2       -7.3480   -3.7290   -0.7320 C.3    17  LEU17       0.0001
      7  C         -7.1270    0.4540   -1.5890 C.2    17  LEU17       0.2592
      8  O         -8.1120    0.2970   -2.2000 O.2    17  LEU17      -0.2718
      9  N         -7.0630    1.2010   -0.5010 N.am   18  ASP18      -0.1960
     10  CA        -8.2440    1.9290    0.0850 C.3    18  ASP18       0.1840
     11  CB        -8.8130    1.1140    1.2660 C.3    18  ASP18       0.1450
     12  CG       -10.2300    1.4980    1.6400 C.2    18  ASP18       0.3671
     13  OD1      -10.4900    2.2680    2.5970 O.co2  18  ASP18      -0.2456
     14  OD2      -11.1770    1.1770    0.8180 O.co2  18  ASP18      -0.2456
     15  C         -7.8330    3.3550    0.6240 C.2    18  ASP18       0.2622
     16  O         -8.5870    4.3920    0.4550 O.2    18  ASP18      -0.2715
     17  N         -6.6540    3.4520    1.3220 N.am   19  ILE19      -0.1963
     18  CA        -6.0210    4.6750    1.7890 C.3    19  ILE19       0.1727
     19  CB        -4.8870    4.3750    2.7780 C.3    19  ILE19       0.0290
     20  CG2       -4.4050    5.6090    3.4770 C.3    19  ILE19       0.0023
     21  CG1       -5.2510    3.2630    3.8230 C.3    19  ILE19       0.0022
     22  CD1       -6.5040    3.5010    4.6160 C.3    19  ILE19       0.0001
     23  C         -5.5350    5.5070    0.5840 C.2    19  ILE19       0.2616
     24  O         -5.9050    6.6660    0.4660 O.2    19  ILE19      -0.2715
     25  N         -4.7320    4.9080   -0.3300 N.am   20  ILE20      -0.1963
     26  CA        -4.4970    5.4200   -1.7260 C.3    20  ILE20       0.1727
     27  CB        -3.0410    5.9480   -1.7710 C.3    20  ILE20       0.0290
     28  CG2       -2.9160    7.1040   -0.8250 C.3    20  ILE20       0.0023
     29  CG1       -1.9950    4.8170   -1.4230 C.3    20  ILE20       0.0022
     30  CD1       -0.5500    5.1390   -1.9550 C.3    20  ILE20       0.0001
     31  C         -4.9410    4.3990   -2.7850 C.2    20  ILE20       0.2617
     32  O         -4.8590    3.1790   -2.5280 O.2    20  ILE20      -0.2715
     33  N         -5.5740    4.8700   -3.8240 N.am   21  TRP21      -0.1941
     34  CA        -6.5840    4.1470   -4.6190 C.3    21  TRP21       0.1982
     35  CB        -7.9200    4.1250   -3.7570 C.3    21  TRP21       0.0394
     36  CG        -8.4250    5.4530   -3.3620 C.3    21  TRP21       0.0475
     37  CD1       -8.1190    6.0680   -2.2450 C.3    21  TRP21       0.1166
     38  NE1       -8.7560    7.2690   -2.1720 N.pl3  21  TRP21      -0.2376
     39  CE2       -9.5810    7.4730   -3.2750 C.ar   21  TRP21       0.0614
     40  CZ2      -10.4220    8.4750   -3.7020 C.ar   21  TRP21       0.0158
     41  CH2      -11.1680    8.3670   -4.9280 C.ar   21  TRP21       0.0013
     42  CZ3      -11.0860    7.1640   -5.6280 C.ar   21  TRP21      -0.0002
     43  CE3      -10.1730    6.1170   -5.2330 C.ar   21  TRP21      -0.0030
     44  CD2       -9.4090    6.2620   -4.0570 C.ar   21  TRP21      -0.0059
     45  C         -6.7510    4.7320   -6.0260 C.2    21  TRP21       0.3842
     46  O         -6.9370    3.8970   -6.9640 O.co2  21  TRP21      -0.2437
     47  OXT       -6.5930    5.9650   -6.2350 O.co2  21  TRP21      -0.2437
@<TRIPOS>BOND
     1    40    41   ar
     2    40    39   ar
     3    41    42   ar
     4    39    38    1
     5    39    44   ar
     6    42    43   ar
     7    38    37    1
     8    43    44   ar
     9    44    36    1
    10    37    36    1
    11    36    35    1
    12    47    45   ar
    13     5     4    1
    14    35    34    1
    15    45    34    1
    16    45    46   ar
    17    34    33    1
    18     8     7    2
    19     4     6    1
    20     4     3    1
    21     2     3    1
    22     2     1    1
    23     2     7    1
    24     7     9   am
    25    33    31   am
    26    32    31    2
    27    31    26    1
    28     9    10    1
    29    10    11    1
    30    10    15    1
    31    26    27    1
    32    26    25    1
    33    11    12    1
    34    13    12   ar
    35    27    29    1
    36    27    28    1
    37    29    30    1
    38    16    15    2
    39    15    17   am
    40    12    14   ar
    41    25    23   am
    42    17    18    1
    43    23    24    2
    44    23    18    1
    45    18    19    1
    46    19    21    1
    47    19    20    1
    48    21    22    1
