@<TRIPOS>MOLECULE
scripts/ET1_17-21_50CONFORMERS_NOBACKBONE.pdb
 26 23 0 0 0
SMALL
GASTEIGER

@<TRIPOS>ATOM
      1  CB        -6.3700   -1.8050   -0.2060 C.3    17  LEU17       0.0000
      2  CG        -7.6770   -2.6370   -0.2070 C.3    17  LEU17       0.0000
      3  CD1       -7.7720   -3.4980   -1.4100 C.3    17  LEU17       0.0000
      4  CD2       -7.8300   -3.5260    1.0180 C.3    17  LEU17       0.0000
      5  CB        -9.4620    1.8070    0.9100 C.3    18  ASP18       0.1258
      6  CG       -10.5680    2.8630    1.0760 C.2    18  ASP18       0.3654
      7  OD1      -11.5500    2.8380    0.3300 O.co2  18  ASP18      -0.2456
      8  OD2      -10.4140    3.6300    2.0110 O.co2  18  ASP18      -0.2456
      9  CB        -5.3050    4.5110    2.7070 C.3    19  ILE19       0.0000
     10  CG2       -4.4360    5.7350    3.1290 C.3    19  ILE19       0.0000
     11  CG1       -6.0230    3.8420    3.9750 C.3    19  ILE19       0.0000
     12  CD1       -6.9850    4.9020    4.6120 C.3    19  ILE19       0.0000
     13  CB        -2.4570    5.4700   -1.3450 C.3    20  ILE20       0.0000
     14  CG2       -2.1500    6.6250   -0.3180 C.3    20  ILE20       0.0000
     15  CG1       -1.7200    4.1500   -1.0860 C.3    20  ILE20       0.0000
     16  CD1       -0.1680    4.2940   -1.0740 C.3    20  ILE20       0.0000
     17  CB        -5.8830    4.8470   -5.8240 C.3    21  TRP21       0.0066
     18  CG        -6.9950    4.3220   -4.9430 C.3    21  TRP21       0.0452
     19  CD1       -7.3330    4.6770   -3.6820 C.3    21  TRP21       0.1165
     20  NE1       -8.3680    3.9550   -3.1920 N.pl3  21  TRP21      -0.2376
     21  CE2       -8.8970    3.0980   -4.1470 C.ar   21  TRP21       0.0614
     22  CZ2       -9.9180    2.1260   -4.1570 C.ar   21  TRP21       0.0158
     23  CH2      -10.1590    1.3550   -5.3180 C.ar   21  TRP21       0.0013
     24  CZ3       -9.3060    1.6050   -6.3710 C.ar   21  TRP21      -0.0002
     25  CE3       -8.2430    2.5870   -6.3550 C.ar   21  TRP21      -0.0030
     26  CD2       -8.0330    3.3480   -5.2670 C.ar   21  TRP21      -0.0059
@<TRIPOS>BOND
     1    22    23   ar
     2    22    21   ar
     3    23    24   ar
     4    21    20    1
     5    21    26   ar
     6    24    25   ar
     7    20    19    1
     8    25    26   ar
     9    26    18    1
    10    19    18    1
    11    18    17    1
    12     3     2    1
    13     2     4    1
    14     2     1    1
    15     5     6    1
    16     7     6   ar
    17    13    15    1
    18    13    14    1
    19    15    16    1
    20     6     8   ar
    21     9    11    1
    22     9    10    1
    23    11    12    1
@<TRIPOS>MOLECULE
scripts/BOSENTAN_50CONFORMERS.pdb
 39 42 0 0 0
SMALL
GASTEIGER

@<TRIPOS>ATOM
      1  S1        -5.6753   -0.3889   -6.7111 S.O2    1  LGD1        0.0943
      2  O2        -5.2076    1.0629   -6.5720 O.2     1  LGD1       -0.1483
      3  O3        -4.7965   -1.3962   -7.4074 O.2     1  LGD1       -0.1483
      4  O4        -9.7172    0.3582   -7.6155 O.3     1  LGD1       -0.4427
      5  O5       -11.6761   -1.6817   -7.4300 O.3     1  LGD1       -0.4552
      6  O6       -10.6491   -0.4437   -5.1505 O.3     1  LGD1       -0.4684
      7  O7       -14.6456   -1.8353   -7.5453 O.3     1  LGD1       -0.2162
      8  N8        -7.0562   -0.3825   -7.6611 N.pl3   1  LGD1       -0.0737
      9  N9        -7.7494   -2.7099   -7.6258 N.ar    1  LGD1       -0.2027
     10  N10      -10.0391   -3.3481   -7.3632 N.ar    1  LGD1       -0.1866
     11  N11       -7.2171   -5.4933   -6.9551 N.ar    1  LGD1       -0.2224
     12  N12       -8.7679   -5.7907   -8.7441 N.ar    1  LGD1       -0.2224
     13  C13       -7.4305   -2.4862   -1.2050 C.3     1  LGD1        0.0189
     14  C14       -6.9046   -2.0304   -2.5975 C.ar    1  LGD1       -0.0227
     15  C15       -8.9812   -2.4274   -1.0816 C.3     1  LGD1        0.0044
     16  C16       -6.9582   -3.8923   -0.8021 C.3     1  LGD1        0.0044
     17  C17       -6.9773   -1.6015   -0.0461 C.3     1  LGD1        0.0044
     18  C18       -6.4791   -2.8856   -3.5862 C.ar    1  LGD1       -0.0029
     19  C19       -7.0591   -0.6583   -2.8955 C.ar    1  LGD1       -0.0029
     20  C20       -6.2367   -1.0489   -5.1436 C.ar    1  LGD1        0.1271
     21  C21       -6.1427   -2.4227   -4.9010 C.ar    1  LGD1        0.0199
     22  C22       -6.7562   -0.1692   -4.1820 C.ar    1  LGD1        0.0199
     23  C23       -8.0125   -1.4020   -7.6904 C.ar    1  LGD1        0.2125
     24  C24       -9.3752   -1.0316   -7.6857 C.ar    1  LGD1        0.2327
     25  C25      -10.3576   -2.0308   -7.5518 C.ar    1  LGD1        0.2651
     26  C26       -8.7198   -3.6351   -7.5414 C.ar    1  LGD1        0.2028
     27  C27       -9.5523    1.0955   -6.4973 C.ar    1  LGD1        0.1793
     28  C28       -8.1680   -5.0759   -7.7594 C.ar    1  LGD1        0.1990
     29  C29      -12.4675   -1.7738   -8.5605 C.3     1  LGD1        0.2426
     30  C30      -10.0730    0.7453   -5.2133 C.ar    1  LGD1        0.1730
     31  C31       -8.8317    2.2795   -6.6180 C.ar    1  LGD1        0.0406
     32  C32       -9.8995    1.5774   -4.0971 C.ar    1  LGD1        0.0401
     33  C33      -13.7642   -0.9590   -8.2845 C.3     1  LGD1        0.2292
     34  C34       -8.5363    3.0571   -5.4885 C.ar    1  LGD1        0.0033
     35  C35       -9.0893    2.7297   -4.2695 C.ar    1  LGD1        0.0033
     36  C36       -6.7417   -6.7533   -7.1459 C.ar    1  LGD1        0.1023
     37  C37       -8.3159   -7.0389   -8.9572 C.ar    1  LGD1        0.1023
     38  C38       -7.3034   -7.5295   -8.1768 C.ar    1  LGD1        0.0414
     39  C39      -10.8472   -0.9776   -3.8584 C.3     1  LGD1        0.2526
@<TRIPOS>BOND
     1    33     7    1
     2    33    29    1
     3     5    29    1
     4     5    25    1
     5    10    25   ar
     6    10    26   ar
     7    36    11   ar
     8    36    38   ar
     9    11    28   ar
    10    25    24   ar
    11    38    37   ar
    12    34    31   ar
    13    34    35   ar
    14    28    26    1
    15    28    12   ar
    16    26     9   ar
    17    31    27   ar
    18    37    12   ar
    19    24     4    1
    20    24    23   ar
    21     4    27    1
    22    27    30   ar
    23    35    32   ar
    24    15    13    1
    25     9    23   ar
    26    23     8    1
    27    30    32   ar
    28    30     6    1
    29     6    39    1
    30     8     1    1
    31    18    14   ar
    32    18    21   ar
    33    13    14    1
    34    13    17    1
    35    13    16    1
    36    14    19   ar
    37    21    20   ar
    38    20     1    1
    39    20    22   ar
    40    19    22   ar
    41     1     2    2
    42     1     3    2
@<TRIPOS>MOLECULE
scripts/ET1_17-21_50CONFORMERS.pdb
 47 48 0 0 0
SMALL
GASTEIGER

@<TRIPOS>ATOM
      1  N         -4.9300    0.0250   -1.1410 N.3    17  LEU17      -0.1231
      2  CA        -6.2160   -0.6670   -1.2750 C.3    17  LEU17       0.1693
      3  CB        -6.3700   -1.8050   -0.2060 C.3    17  LEU17       0.0284
      4  CG        -7.6770   -2.6370   -0.2070 C.3    17  LEU17       0.0019
      5  CD1       -7.7720   -3.4980   -1.4100 C.3    17  LEU17       0.0001
      6  CD2       -7.8300   -3.5260    1.0180 C.3    17  LEU17       0.0001
      7  C         -7.4290    0.3110   -1.2070 C.2    17  LEU17       0.2592
      8  O         -8.2410    0.2990   -2.1470 O.2    17  LEU17      -0.2718
      9  N         -7.4630    1.1840   -0.2470 N.am   18  ASP18      -0.1960
     10  CA        -8.4450    2.2110   -0.1340 C.3    18  ASP18       0.1840
     11  CB        -9.4620    1.8070    0.9100 C.3    18  ASP18       0.1450
     12  CG       -10.5680    2.8630    1.0760 C.2    18  ASP18       0.3671
     13  OD1      -11.5500    2.8380    0.3300 O.co2  18  ASP18      -0.2456
     14  OD2      -10.4140    3.6300    2.0110 O.co2  18  ASP18      -0.2456
     15  C         -7.9300    3.6490    0.1720 C.2    18  ASP18       0.2622
     16  O         -8.3060    4.6610   -0.4000 O.2    18  ASP18      -0.2715
     17  N         -6.9560    3.7380    1.0780 N.am   19  ILE19      -0.1963
     18  CA        -6.2590    4.9510    1.5320 C.3    19  ILE19       0.1727
     19  CB        -5.3050    4.5110    2.7070 C.3    19  ILE19       0.0290
     20  CG2       -4.4360    5.7350    3.1290 C.3    19  ILE19       0.0023
     21  CG1       -6.0230    3.8420    3.9750 C.3    19  ILE19       0.0022
     22  CD1       -6.9850    4.9020    4.6120 C.3    19  ILE19       0.0001
     23  C         -5.5040    5.6430    0.3790 C.2    19  ILE19       0.2616
     24  O         -5.6940    6.8250    0.1220 O.2    19  ILE19      -0.2715
     25  N         -4.6970    4.8860   -0.3940 N.am   20  ILE20      -0.1963
     26  CA        -3.9560    5.3600   -1.5730 C.3    20  ILE20       0.1727
     27  CB        -2.4570    5.4700   -1.3450 C.3    20  ILE20       0.0290
     28  CG2       -2.1500    6.6250   -0.3180 C.3    20  ILE20       0.0023
     29  CG1       -1.7200    4.1500   -1.0860 C.3    20  ILE20       0.0022
     30  CD1       -0.1680    4.2940   -1.0740 C.3    20  ILE20       0.0001
     31  C         -4.2210    4.4780   -2.8270 C.2    20  ILE20       0.2617
     32  O         -4.5200    3.2710   -2.7150 O.2    20  ILE20      -0.2715
     33  N         -4.1970    5.0920   -4.0030 N.am   21  TRP21      -0.1941
     34  CA        -4.4600    4.5270   -5.3230 C.3    21  TRP21       0.1982
     35  CB        -5.8830    4.8470   -5.8240 C.3    21  TRP21       0.0394
     36  CG        -6.9950    4.3220   -4.9430 C.3    21  TRP21       0.0475
     37  CD1       -7.3330    4.6770   -3.6820 C.3    21  TRP21       0.1166
     38  NE1       -8.3680    3.9550   -3.1920 N.pl3  21  TRP21      -0.2376
     39  CE2       -8.8970    3.0980   -4.1470 C.ar   21  TRP21       0.0614
     40  CZ2       -9.9180    2.1260   -4.1570 C.ar   21  TRP21       0.0158
     41  CH2      -10.1590    1.3550   -5.3180 C.ar   21  TRP21       0.0013
     42  CZ3       -9.3060    1.6050   -6.3710 C.ar   21  TRP21      -0.0002
     43  CE3       -8.2430    2.5870   -6.3550 C.ar   21  TRP21      -0.0030
     44  CD2       -8.0330    3.3480   -5.2670 C.ar   21  TRP21      -0.0059
     45  C         -3.4540    4.8840   -6.4240 C.2    21  TRP21       0.3842
     46  O         -3.1280    6.1110   -6.4220 O.co2  21  TRP21      -0.2437
     47  OXT       -3.0220    4.0340   -7.2330 O.co2  21  TRP21      -0.2437
@<TRIPOS>BOND
     1    40    41   ar
     2    40    39   ar
     3    41    42   ar
     4    39    38    1
     5    39    44   ar
     6    42    43   ar
     7    38    37    1
     8    43    44   ar
     9    44    36    1
    10    37    36    1
    11    36    35    1
    12    47    45   ar
    13     5     4    1
    14    35    34    1
    15    45    34    1
    16    45    46   ar
    17    34    33    1
    18     8     7    2
    19     4     6    1
    20     4     3    1
    21     2     3    1
    22     2     1    1
    23     2     7    1
    24     7     9   am
    25    33    31   am
    26    32    31    2
    27    31    26    1
    28     9    10    1
    29    10    11    1
    30    10    15    1
    31    26    27    1
    32    26    25    1
    33    11    12    1
    34    13    12   ar
    35    27    29    1
    36    27    28    1
    37    29    30    1
    38    16    15    2
    39    15    17   am
    40    12    14   ar
    41    25    23   am
    42    17    18    1
    43    23    24    2
    44    23    18    1
    45    18    19    1
    46    19    21    1
    47    19    20    1
    48    21    22    1
