@<TRIPOS>MOLECULE
156690
 70 73 0 0 0
SMALL
GASTEIGER

@<TRIPOS>ATOM
      1 S           2.4232    2.0124   -2.0767 S.O2    1  LIG11       0.0741
      2 O          -4.2646    0.0496    1.9281 O.2     1  LIG11      -0.2756
      3 O           2.4232    3.0233   -3.1192 O.2     1  LIG11      -0.1499
      4 O           2.0904    0.6530   -2.4236 O.2     1  LIG11      -0.1499
      5 O          -1.8213   -4.3009    0.2101 O.2     1  LIG11      -0.4436
      6 O           4.9412   -0.6657    0.5724 O.2     1  LIG11      -0.3578
      7 N          -3.6285    0.3224   -0.2591 N.am    1  LIG11      -0.3002
      8 N           4.0038    2.0655   -1.4045 N.pl3   1  LIG11      -0.1965
      9 N           0.2180   -4.8055   -0.6176 N.ar    1  LIG11      -0.2175
     10 N           4.8884    0.0040   -0.6358 N.ar    1  LIG11      -0.0614
     11 C          -6.8879   -1.0881    1.3318 C.3     1  LIG11      -0.0295
     12 C          -5.8599   -0.6488    0.2558 C.3     1  LIG11       0.0290
     13 C          -8.1217   -1.6499    0.5910 C.3     1  LIG11      -0.0596
     14 C          -7.3524    0.1008    2.1900 C.3     1  LIG11      -0.0596
     15 C          -6.3324   -2.2027    2.2345 C.3     1  LIG11      -0.0596
     16 C          -4.5310   -0.0645    0.7320 C.2     1  LIG11       0.2161
     17 C          -2.3325    0.8718    0.1555 C.3     1  LIG11       0.0400
     18 C          -1.1406   -0.0745    0.0258 C.ar    1  LIG11      -0.0216
     19 C           0.2023    0.4108   -0.0127 C.ar    1  LIG11      -0.0113
     20 C           0.5579    1.8647    0.0976 C.ar    1  LIG11       0.0090
     21 C          -3.8627    0.2569   -1.6961 C.3     1  LIG11       0.0035
     22 C          -1.3819   -1.4763    0.0111 C.ar    1  LIG11      -0.0442
     23 C           1.3917    2.6340   -0.7540 C.ar    1  LIG11       0.1162
     24 C           1.2085   -0.5654   -0.0735 C.ar    1  LIG11      -0.0529
     25 C          -0.3519   -2.4131   -0.1161 C.ar    1  LIG11       0.0372
     26 C           0.9498   -1.9359   -0.1650 C.ar    1  LIG11      -0.0489
     27 C           0.0008    2.5713    1.1943 C.ar    1  LIG11      -0.0521
     28 C           1.4925    4.0392   -0.5892 C.ar    1  LIG11      -0.0345
     29 C           0.1207    3.9559    1.3599 C.ar    1  LIG11      -0.0611
     30 C          -0.5944   -3.8485   -0.2058 C.ar    1  LIG11       0.2271
     31 C           0.8461    4.6983    0.4474 C.ar    1  LIG11      -0.0599
     32 C           4.3206    1.1817   -0.3729 C.ar    1  LIG11       0.1837
     33 C           4.1688    1.3826    1.0249 C.ar    1  LIG11       0.0342
     34 C           4.4808    0.1481    1.5581 C.ar    1  LIG11       0.1390
     35 C           3.7427    2.5816    1.7757 C.3     1  LIG11      -0.0330
     36 C          -1.7525   -5.6506    0.0393 C.ar    1  LIG11       0.1125
     37 C          -0.5194   -5.9521   -0.4780 C.ar    1  LIG11       0.0663
     38 C           4.3869   -0.4342    2.9117 C.3     1  LIG11      -0.0034
     39 H           4.6204    1.9088   -2.2044 H       1  LIG11       0.1753
     40 H          -5.6200   -1.5212   -0.3663 H       1  LIG11       0.0364
     41 H          -6.3343    0.1080   -0.3818 H       1  LIG11       0.0364
     42 H          -8.5670   -0.8946   -0.0665 H       1  LIG11       0.0235
     43 H          -7.8522   -2.5139   -0.0272 H       1  LIG11       0.0235
     44 H          -8.8961   -1.9747    1.2952 H       1  LIG11       0.0235
     45 H          -7.7266    0.9176    1.5630 H       1  LIG11       0.0235
     46 H          -8.1641   -0.1963    2.8646 H       1  LIG11       0.0235
     47 H          -6.5479    0.4998    2.8142 H       1  LIG11       0.0235
     48 H          -5.9547   -3.0415    1.6392 H       1  LIG11       0.0235
     49 H          -5.5177   -1.8518    2.8738 H       1  LIG11       0.0235
     50 H          -7.1123   -2.5935    2.8987 H       1  LIG11       0.0235
     51 H          -2.1703    1.7705   -0.4503 H       1  LIG11       0.0514
     52 H          -2.4012    1.1821    1.2026 H       1  LIG11       0.0514
     53 H          -4.8232   -0.1878   -1.9532 H       1  LIG11       0.0429
     54 H          -3.8336    1.2750   -2.0962 H       1  LIG11       0.0429
     55 H          -3.0720   -0.3358   -2.1640 H       1  LIG11       0.0429
     56 H          -2.4031   -1.8453    0.0863 H       1  LIG11       0.0628
     57 H           2.2487   -0.2864   -0.0864 H       1  LIG11       0.0624
     58 H           1.7873   -2.6250   -0.2712 H       1  LIG11       0.0625
     59 H          -0.5562    2.0313    1.9602 H       1  LIG11       0.0624
     60 H           2.1026    4.6357   -1.2693 H       1  LIG11       0.0637
     61 H          -0.3614    4.4457    2.2020 H       1  LIG11       0.0618
     62 H           0.9375    5.7759    0.5547 H       1  LIG11       0.0618
     63 H           3.7326    3.4723    1.1431 H       1  LIG11       0.0280
     64 H           2.7502    2.4364    2.2092 H       1  LIG11       0.0280
     65 H           4.4370    2.7791    2.5996 H       1  LIG11       0.0280
     66 H          -2.6259   -6.2194    0.3200 H       1  LIG11       0.1046
     67 H          -0.1227   -6.9198   -0.7500 H       1  LIG11       0.0862
     68 H           4.5329   -1.5183    2.8922 H       1  LIG11       0.0309
     69 H           5.1350    0.0061    3.5759 H       1  LIG11       0.0309
     70 H           3.3947   -0.2428    3.3361 H       1  LIG11       0.0309
@<TRIPOS>BOND
     1     1     3    2
     2     1     4    2
     3     1     8    1
     4     1    23    1
     5     2    16    2
     6     5    30   ar
     7     5    36   ar
     8     6    10   ar
     9     6    34   ar
    10     7    16   am
    11     7    17    1
    12     7    21    1
    13     8    32    1
    14     9    30   ar
    15     9    37   ar
    16    10    32   ar
    17    11    12    1
    18    11    13    1
    19    11    14    1
    20    11    15    1
    21    12    16    1
    22    17    18    1
    23    18    19   ar
    24    18    22   ar
    25    19    20    1
    26    19    24   ar
    27    20    23   ar
    28    20    27   ar
    29    22    25   ar
    30    23    28   ar
    31    24    26   ar
    32    25    26   ar
    33    25    30    1
    34    27    29   ar
    35    28    31   ar
    36    29    31   ar
    37    32    33   ar
    38    33    34   ar
    39    33    35    1
    40    34    38    1
    41    36    37   ar
    42     8    39    1
    43    12    40    1
    44    12    41    1
    45    13    42    1
    46    13    43    1
    47    13    44    1
    48    14    45    1
    49    14    46    1
    50    14    47    1
    51    15    48    1
    52    15    49    1
    53    15    50    1
    54    17    51    1
    55    17    52    1
    56    21    53    1
    57    21    54    1
    58    21    55    1
    59    22    56    1
    60    24    57    1
    61    26    58    1
    62    27    59    1
    63    28    60    1
    64    29    61    1
    65    31    62    1
    66    35    63    1
    67    35    64    1
    68    35    65    1
    69    36    66    1
    70    37    67    1
    71    38    68    1
    72    38    69    1
    73    38    70    1
@<TRIPOS>MOLECULE
16219006
 85 88 0 0 0
SMALL
GASTEIGER

@<TRIPOS>ATOM
      1 O           4.3771   -0.9743    2.2294 O.2     1  PRO11      -0.2738
      2 O           3.2974    1.1322   -1.3734 O.2     5  ASP55      -0.2735
      3 O           1.9703   -1.7726   -1.7334 O.2     2  VAL22      -0.2738
      4 O          -0.4463    2.9248    1.2322 O.2     4  TRP44      -0.2738
      5 O          -0.3505   -1.2143    1.8054 O.2     3  LEU33      -0.2738
      6 OD1         3.5281    4.6665   -1.1324 O.co2   5  ASP55      -0.5497
      7 OD2         2.8726    5.0851   -3.2760 O.co2   5  ASP55      -0.5497
      8 N           3.4986    1.8473    0.7674 N.am    1  PRO11      -0.2884
      9 N           4.2360   -1.0493   -0.0561 N.am    2  VAL22      -0.3022
     10 N           0.5318    1.9019   -0.5758 N.am    5  ASP55      -0.3021
     11 N           1.2849   -2.8307    0.1683 N.am    3  LEU33      -0.3025
     12 N          -1.0592   -0.3408   -0.1934 N.am    4  TRP44      -0.3022
     13 NE1        -5.4485   -0.7209   -1.3667 N.ar    4  TRP44      -0.3604
     14 CA          4.7412    1.1094    0.9890 C.3     1  PRO11       0.1023
     15 CB          5.3274    1.7271    2.2608 C.3     1  PRO11      -0.0243
     16 CG          4.1037    2.2579    2.9985 C.3     1  PRO11      -0.0350
     17 CD          3.2166    2.7520    1.8680 C.3     1  PRO11       0.0156
     18 C           4.4434   -0.3980    1.1448 C.2     1  PRO11       0.2342
     19 C           2.9330    1.9215   -0.4900 C.2     5  ASP55       0.2369
     20 CA          3.6916   -2.3953   -0.1083 C.3     2  VAL22       0.1017
     21 CA          1.6844    2.8170   -0.6814 C.3     5  ASP55       0.1047
     22 CB          4.5564   -3.3751   -0.9321 C.3     2  VAL22      -0.0197
     23 CA         -0.1184   -2.6154   -0.1556 C.3     3  LEU33       0.0996
     24 C           2.2535   -2.2946   -0.6568 C.2     2  VAL22       0.2342
     25 CB          1.6882    3.4742   -2.0513 C.3     5  ASP55       0.0138
     26 CA         -1.5114    0.9255    0.3940 C.3     4  TRP44       0.1034
     27 CB         -1.0043   -3.7768    0.3123 C.3     3  LEU33      -0.0236
     28 CG         -0.9052   -5.0426   -0.5665 C.3     3  LEU33      -0.0446
     29 C          -0.3919    1.9829    0.4425 C.2     4  TRP44       0.2343
     30 CB         -2.6959    1.5259   -0.3814 C.3     4  TRP44       0.0013
     31 C          -0.5209   -1.3323    0.5926 C.2     3  LEU33       0.2340
     32 CG1         5.8681   -3.6785   -0.1976 C.3     2  VAL22      -0.0605
     33 CG2         4.8685   -2.8995   -2.3540 C.3     2  VAL22      -0.0605
     34 CG         -3.8755    0.6016   -0.4998 C.ar    4  TRP44      -0.0201
     35 CG          2.8104    4.5010   -2.1571 C.2     5  ASP55       0.0440
     36 CD1         0.4511   -5.7432   -0.4629 C.3     3  LEU33      -0.0626
     37 CD2        -2.0132   -6.0255   -0.1772 C.3     3  LEU33      -0.0626
     38 CD2        -4.7016    0.1069    0.5625 C.ar    4  TRP44       0.0029
     39 CD1        -4.3760    0.0708   -1.6738 C.ar    4  TRP44       0.0060
     40 CE2        -5.6653   -0.7252   -0.0094 C.ar    4  TRP44       0.0467
     41 CE3        -4.7178    0.2846    1.9616 C.ar    4  TRP44      -0.0523
     42 CZ2        -6.6364   -1.3942    0.7463 C.ar    4  TRP44      -0.0378
     43 CZ3        -5.6790   -0.3796    2.7327 C.ar    4  TRP44      -0.0611
     44 CH2        -6.6228   -1.2077    2.1314 C.ar    4  TRP44      -0.0598
     45 H           4.0153   -0.4337   -0.8496 H       2  VAL22       0.1495
     46 H           0.6327    1.0231   -1.0690 H       5  ASP55       0.1495
     47 H           1.5032   -2.8398    1.1615 H       3  LEU33       0.1495
     48 H          -1.0463   -0.4311   -1.2019 H       4  TRP44       0.1495
     49 HE1        -6.0079   -1.2289   -2.0369 H       4  TRP44       0.1653
     50 HA          5.4262    1.2446    0.1433 H       1  PRO11       0.0597
     51 HB1         5.9784    2.5685    1.9925 H       1  PRO11       0.0288
     52 HB2         5.9123    1.0297    2.8674 H       1  PRO11       0.0288
     53 HG1         4.3474    3.0453    3.7169 H       1  PRO11       0.0281
     54 HG2         3.6086    1.4422    3.5386 H       1  PRO11       0.0281
     55 HD1         2.1574    2.7268    2.1343 H       1  PRO11       0.0465
     56 HD2         3.4927    3.7670    1.5634 H       1  PRO11       0.0465
     57 HA          3.6273   -2.7914    0.9124 H       2  VAL22       0.0597
     58 HA          1.6105    3.5786    0.0980 H       5  ASP55       0.0598
     59 HB          4.0045   -4.3210   -1.0182 H       2  VAL22       0.0318
     60 HA         -0.2439   -2.4688   -1.2340 H       3  LEU33       0.0594
     61 HB1         0.7341    3.9873   -2.2251 H       5  ASP55       0.0348
     62 HB2         1.8101    2.7339   -2.8515 H       5  ASP55       0.0348
     63 HA         -1.7979    0.7295    1.4337 H       4  TRP44       0.0598
     64 HB1        -2.0480   -3.4330    0.3029 H       3  LEU33       0.0290
     65 HB2        -0.7777   -4.0313    1.3564 H       3  LEU33       0.0290
     66 HG         -1.0660   -4.7597   -1.6145 H       3  LEU33       0.0296
     67 HB1        -2.3677    1.8152   -1.3893 H       4  TRP44       0.0337
     68 HB2        -3.0263    2.4535    0.1045 H       4  TRP44       0.0337
     69 HG11        6.4964   -2.7855   -0.1117 H       2  VAL22       0.0233
     70 HG12        6.4431   -4.4434   -0.7306 H       2  VAL22       0.0233
     71 HG13        5.6729   -4.0557    0.8119 H       2  VAL22       0.0233
     72 HG21        5.4056   -1.9457   -2.3556 H       2  VAL22       0.0233
     73 HG22        3.9572   -2.7825   -2.9465 H       2  VAL22       0.0233
     74 HG23        5.4957   -3.6331   -2.8733 H       2  VAL22       0.0233
     75 HD11        0.7324   -5.9147    0.5816 H       3  LEU33       0.0232
     76 HD12        1.2407   -5.1583   -0.9422 H       3  LEU33       0.0232
     77 HD13        0.4299   -6.7143   -0.9693 H       3  LEU33       0.0232
     78 HD21       -1.9124   -6.3448    0.8656 H       3  LEU33       0.0232
     79 HD22       -1.9819   -6.9184   -0.8108 H       3  LEU33       0.0232
     80 HD23       -3.0003   -5.5676   -0.3001 H       3  LEU33       0.0232
     81 HD1        -4.0608    0.1965   -2.7014 H       4  TRP44       0.0810
     82 HE3        -3.9890    0.9280    2.4464 H       4  TRP44       0.0624
     83 HZ2        -7.3751   -2.0370    0.2797 H       4  TRP44       0.0638
     84 HZ3        -5.6828   -0.2455    3.8115 H       4  TRP44       0.0618
     85 HH2        -7.3604   -1.7156    2.7478 H       4  TRP44       0.0618
@<TRIPOS>BOND
     1     1    18    2
     2     2    19    2
     3     3    24    2
     4     4    29    2
     5     5    31    2
     6     6    35   ar
     7     7    35   ar
     8     8    14    1
     9     8    17    1
    10     8    19   am
    11     9    18   am
    12     9    20    1
    13    10    21    1
    14    10    29   am
    15    11    23    1
    16    11    24   am
    17    12    26    1
    18    12    31   am
    19    13    39   ar
    20    13    40   ar
    21    14    15    1
    22    14    18    1
    23    15    16    1
    24    16    17    1
    25    19    21    1
    26    20    22    1
    27    20    24    1
    28    21    25    1
    29    22    32    1
    30    22    33    1
    31    23    27    1
    32    23    31    1
    33    25    35    1
    34    26    29    1
    35    26    30    1
    36    27    28    1
    37    28    36    1
    38    28    37    1
    39    30    34    1
    40    34    38   ar
    41    34    39   ar
    42    38    40   ar
    43    38    41   ar
    44    40    42   ar
    45    41    43   ar
    46    42    44   ar
    47    43    44   ar
    48     9    45    1
    49    10    46    1
    50    11    47    1
    51    12    48    1
    52    13    49    1
    53    14    50    1
    54    15    51    1
    55    15    52    1
    56    16    53    1
    57    16    54    1
    58    17    55    1
    59    17    56    1
    60    20    57    1
    61    21    58    1
    62    22    59    1
    63    23    60    1
    64    25    61    1
    65    25    62    1
    66    26    63    1
    67    27    64    1
    68    27    65    1
    69    28    66    1
    70    30    67    1
    71    30    68    1
    72    32    69    1
    73    32    70    1
    74    32    71    1
    75    33    72    1
    76    33    73    1
    77    33    74    1
    78    36    75    1
    79    36    76    1
    80    36    77    1
    81    37    78    1
    82    37    79    1
    83    37    80    1
    84    39    81    1
    85    41    82    1
    86    42    83    1
    87    43    84    1
    88    44    85    1
