@<TRIPOS>MOLECULE
104865
 68 71 0 0 0
SMALL
GASTEIGER

@<TRIPOS>ATOM
      1 S          -0.6844    2.5491   -1.5946 S.O2    1  LIG11       0.0736
      2 O          -0.3471    3.4806   -2.6510 O.2     1  LIG11      -0.1499
      3 O          -1.8437    2.7649   -0.7596 O.2     1  LIG11      -0.1499
      4 O          -2.9306    0.0482   -0.7086 O.3     1  LIG11      -0.4435
      5 O          -2.3796   -2.3838    0.7056 O.3     1  LIG11      -0.4715
      6 O          -5.8016   -0.5497   -0.8388 O.3     1  LIG11      -0.4914
      7 O          -3.5389   -4.7549   -0.5833 O.3     1  LIG11      -0.3917
      8 N          -0.7912    1.0303   -2.3171 N.pl3   1  LIG11      -0.1963
      9 N           0.5398   -0.6225   -1.5418 N.ar    1  LIG11      -0.2044
     10 N          -0.1560   -2.2791    0.0079 N.ar    1  LIG11      -0.1866
     11 N           2.5292   -3.0186    0.3202 N.ar    1  LIG11      -0.2331
     12 N           3.0026   -1.9284   -1.7527 N.ar    1  LIG11      -0.2331
     13 C           4.2102    1.8698    2.0325 C.3     1  LIG11      -0.0127
     14 C           2.9697    2.0823    1.1470 C.ar    1  LIG11      -0.0419
     15 C           5.0612    3.1561    2.0315 C.3     1  LIG11      -0.0560
     16 C           5.0537    0.6964    1.4861 C.3     1  LIG11      -0.0560
     17 C           3.8759    1.5351    3.5044 C.3     1  LIG11      -0.0560
     18 C           3.1179    2.2880   -0.2413 C.ar    1  LIG11      -0.0562
     19 C           1.6654    2.0936    1.6715 C.ar    1  LIG11      -0.0562
     20 C           0.7327    2.4184   -0.5316 C.ar    1  LIG11       0.1086
     21 C           2.0126    2.4564   -1.0781 C.ar    1  LIG11      -0.0348
     22 C           0.5544    2.2693    0.8420 C.ar    1  LIG11      -0.0348
     23 C          -0.6901   -0.0961   -1.4626 C.ar    1  LIG11       0.1883
     24 C          -1.7096   -0.5637   -0.6581 C.ar    1  LIG11       0.2307
     25 C          -1.3874   -1.7278    0.0123 C.ar    1  LIG11       0.2642
     26 C           0.7858   -1.6888   -0.7559 C.ar    1  LIG11       0.2027
     27 C          -3.7346    0.0722    0.4093 C.ar    1  LIG11       0.1702
     28 C           2.1702   -2.2413   -0.7302 C.ar    1  LIG11       0.1978
     29 C          -2.0949   -3.7371    1.0789 C.3     1  LIG11       0.1143
     30 C          -5.1018   -0.2208    0.2909 C.ar    1  LIG11       0.1621
     31 C          -3.2086    0.4371    1.6604 C.ar    1  LIG11      -0.0157
     32 C          -5.8949   -0.2288    1.4477 C.ar    1  LIG11      -0.0163
     33 C          -2.1932   -4.6911   -0.1136 C.3     1  LIG11       0.0783
     34 C          -4.0151    0.4372    2.7998 C.ar    1  LIG11      -0.0581
     35 C          -5.3578    0.0937    2.6950 C.ar    1  LIG11      -0.0581
     36 C           3.7923   -3.4814    0.3287 C.ar    1  LIG11       0.0315
     37 C           4.2492   -2.4315   -1.6947 C.ar    1  LIG11       0.0315
     38 C           4.7038   -3.2182   -0.6646 C.ar    1  LIG11      -0.0254
     39 C          -5.2503   -0.1725   -2.0917 C.3     1  LIG11       0.0790
     40 H          -3.5321   -5.2639   -1.4113 H       1  LIG11       0.2095
     41 H          -0.1241    0.9702   -3.0842 H       1  LIG11       0.1754
     42 H           5.4223    3.4105    1.0288 H       1  LIG11       0.0238
     43 H           5.9418    3.0483    2.6754 H       1  LIG11       0.0238
     44 H           4.4825    4.0122    2.3987 H       1  LIG11       0.0238
     45 H           5.4486    0.8975    0.4845 H       1  LIG11       0.0238
     46 H           4.4587   -0.2227    1.4278 H       1  LIG11       0.0238
     47 H           5.9162    0.4953    2.1323 H       1  LIG11       0.0238
     48 H           3.3309    2.3513    3.9922 H       1  LIG11       0.0238
     49 H           4.7883    1.3671    4.0886 H       1  LIG11       0.0238
     50 H           3.2691    0.6249    3.5813 H       1  LIG11       0.0238
     51 H           4.1073    2.3139   -0.6932 H       1  LIG11       0.0621
     52 H           1.4779    1.9636    2.7331 H       1  LIG11       0.0621
     53 H           2.1607    2.5993   -2.1462 H       1  LIG11       0.0637
     54 H          -0.4412    2.2778    1.2790 H       1  LIG11       0.0637
     55 H          -2.8601   -4.0104    1.8145 H       1  LIG11       0.0720
     56 H          -1.1269   -3.8177    1.5872 H       1  LIG11       0.0720
     57 H          -2.1648    0.7101    1.7627 H       1  LIG11       0.0655
     58 H          -6.9492   -0.4824    1.3692 H       1  LIG11       0.0655
     59 H          -1.5641   -4.3672   -0.9472 H       1  LIG11       0.0591
     60 H          -1.8957   -5.6999    0.1872 H       1  LIG11       0.0591
     61 H          -3.5933    0.6997    3.7661 H       1  LIG11       0.0619
     62 H          -5.9917    0.0831    3.5773 H       1  LIG11       0.0619
     63 H           4.0573   -4.0901    1.1886 H       1  LIG11       0.0831
     64 H           4.8929   -2.1736   -2.5308 H       1  LIG11       0.0831
     65 H           5.7127   -3.6062   -0.6378 H       1  LIG11       0.0648
     66 H          -6.0458   -0.2471   -2.8393 H       1  LIG11       0.0660
     67 H          -4.4607   -0.8690   -2.3908 H       1  LIG11       0.0660
     68 H          -4.8995    0.8649   -2.0924 H       1  LIG11       0.0660
@<TRIPOS>BOND
     1     1     2    2
     2     1     3    2
     3     1     8    1
     4     1    20    1
     5     4    24    1
     6     4    27    1
     7     5    25    1
     8     5    29    1
     9     6    30    1
    10     6    39    1
    11     7    33    1
    12     8    23    1
    13     9    23   ar
    14     9    26   ar
    15    10    25   ar
    16    10    26   ar
    17    11    28   ar
    18    11    36   ar
    19    12    28   ar
    20    12    37   ar
    21    13    14    1
    22    13    15    1
    23    13    16    1
    24    13    17    1
    25    14    18   ar
    26    14    19   ar
    27    18    21   ar
    28    19    22   ar
    29    20    21   ar
    30    20    22   ar
    31    23    24   ar
    32    24    25   ar
    33    26    28    1
    34    27    30   ar
    35    27    31   ar
    36    29    33    1
    37    30    32   ar
    38    31    34   ar
    39    32    35   ar
    40    34    35   ar
    41    36    38   ar
    42    37    38   ar
    43     7    40    1
    44     8    41    1
    45    15    42    1
    46    15    43    1
    47    15    44    1
    48    16    45    1
    49    16    46    1
    50    16    47    1
    51    17    48    1
    52    17    49    1
    53    17    50    1
    54    18    51    1
    55    19    52    1
    56    21    53    1
    57    22    54    1
    58    29    55    1
    59    29    56    1
    60    31    57    1
    61    32    58    1
    62    33    59    1
    63    33    60    1
    64    34    61    1
    65    35    62    1
    66    36    63    1
    67    37    64    1
    68    38    65    1
    69    39    66    1
    70    39    67    1
    71    39    68    1
@<TRIPOS>MOLECULE
16219006
 85 88 0 0 0
SMALL
GASTEIGER

@<TRIPOS>ATOM
      1 O           4.4689   -1.0314    2.2361 O.2     1  PRO11      -0.2738
      2 O           3.4197    1.1845   -1.4383 O.2     5  ASP55      -0.2735
      3 O           2.0312   -1.9392   -1.8298 O.2     2  VAL22      -0.2738
      4 O          -0.2790    2.8721    1.3902 O.2     4  TRP44      -0.2738
      5 O          -0.2349   -1.1789    1.7468 O.2     3  LEU33      -0.2738
      6 OD1         0.9149    5.4320   -2.4705 O.co2   5  ASP55      -0.5497
      7 OD2        -0.6660    3.7806   -2.3603 O.co2   5  ASP55      -0.5497
      8 N           3.5067    1.8341    0.7214 N.am    1  PRO11      -0.2884
      9 N           4.0969   -1.0912   -0.0192 N.am    2  VAL22      -0.3022
     10 N           0.5729    1.8012   -0.4582 N.am    5  ASP55      -0.3021
     11 N           1.1841   -2.8529    0.0936 N.am    3  LEU33      -0.3025
     12 N          -1.1617   -0.2673   -0.1444 N.am    4  TRP44      -0.3022
     13 NE1        -5.4716   -0.4984   -1.3373 N.ar    4  TRP44      -0.3604
     14 CA          4.7233    1.0636    0.9855 C.3     1  PRO11       0.1023
     15 CB          5.2867    1.6962    2.2586 C.3     1  PRO11      -0.0243
     16 CG          4.0414    2.1816    2.9914 C.3     1  PRO11      -0.0350
     17 CD          3.1354    2.6534    1.8640 C.3     1  PRO11       0.0156
     18 C           4.4089   -0.4436    1.1575 C.2     1  PRO11       0.2342
     19 C           2.9530    1.8979   -0.5406 C.2     5  ASP55       0.2369
     20 CA          3.6122   -2.4678   -0.0551 C.3     2  VAL22       0.1017
     21 CA          1.6639    2.7297   -0.7439 C.3     5  ASP55       0.1047
     22 CB          4.5479   -3.3844   -0.8732 C.3     2  VAL22      -0.0197
     23 CA         -0.1957   -2.5220   -0.2651 C.3     3  LEU33       0.0996
     24 C           2.2156   -2.3921   -0.7016 C.2     2  VAL22       0.2342
     25 CB          1.6095    3.2086   -2.1893 C.3     5  ASP55       0.0138
     26 CA         -1.5369    0.9969    0.5051 C.3     4  TRP44       0.1034
     27 CB         -1.1367   -3.6739    0.1052 C.3     3  LEU33      -0.0236
     28 CG         -2.6131   -3.4528   -0.2827 C.3     3  LEU33      -0.0446
     29 C          -0.3406    1.9693    0.5570 C.2     4  TRP44       0.2343
     30 CB         -2.7102    1.6761   -0.2177 C.3     4  TRP44       0.0013
     31 C          -0.5258   -1.2635    0.5536 C.2     3  LEU33       0.2340
     32 CG1         3.9949   -4.8128   -0.9581 C.3     2  VAL22      -0.0605
     33 CG2         5.9535   -3.4316   -0.2620 C.3     2  VAL22      -0.0605
     34 CG         -3.9033    0.7719   -0.3886 C.ar    4  TRP44      -0.0201
     35 CG          0.5121    4.2438   -2.3377 C.2     5  ASP55       0.0440
     36 CD1        -2.8055   -3.2929   -1.7916 C.3     3  LEU33      -0.0626
     37 CD2        -3.4617   -4.6231    0.2211 C.3     3  LEU33      -0.0626
     38 CD2        -4.7257    0.2073    0.6401 C.ar    4  TRP44       0.0029
     39 CD1        -4.4038    0.3154   -1.5934 C.ar    4  TRP44       0.0060
     40 CE2        -5.6827   -0.5962    0.0177 C.ar    4  TRP44       0.0467
     41 CE3        -4.7390    0.2942    2.0474 C.ar    4  TRP44      -0.0523
     42 CZ2        -6.6424   -1.3253    0.7308 C.ar    4  TRP44      -0.0378
     43 CZ3        -5.6912   -0.4278    2.7763 C.ar    4  TRP44      -0.0611
     44 CH2        -6.6267   -1.2275    2.1250 C.ar    4  TRP44      -0.0598
     45 H           3.8814   -0.4952   -0.8272 H       2  VAL22       0.1495
     46 H           0.4027    1.0811   -1.1456 H       5  ASP55       0.1495
     47 H           1.3645   -2.8491    1.0945 H       3  LEU33       0.1495
     48 H          -1.3084   -0.3452   -1.1430 H       4  TRP44       0.1495
     49 HE1        -6.0280   -0.9637   -2.0397 H       4  TRP44       0.1653
     50 HA          5.4322    1.1693    0.1554 H       1  PRO11       0.0597
     51 HB1         5.9096    2.5601    1.9950 H       1  PRO11       0.0288
     52 HB2         5.8922    1.0171    2.8654 H       1  PRO11       0.0288
     53 HG1         4.2556    2.9724    3.7158 H       1  PRO11       0.0281
     54 HG2         3.5727    1.3474    3.5265 H       1  PRO11       0.0281
     55 HD1         2.0820    2.5266    2.1119 H       1  PRO11       0.0465
     56 HD2         3.3278    3.7014    1.6104 H       1  PRO11       0.0465
     57 HA          3.5229   -2.8536    0.9669 H       2  VAL22       0.0597
     58 HA          1.6354    3.5789   -0.0553 H       5  ASP55       0.0598
     59 HB          4.6382   -2.9958   -1.8962 H       2  VAL22       0.0318
     60 HA         -0.2497   -2.3050   -1.3353 H       3  LEU33       0.0594
     61 HB1         1.4238    2.3840   -2.8880 H       5  ASP55       0.0348
     62 HB2         2.5688    3.6590   -2.4759 H       5  ASP55       0.0348
     63 HA         -1.8022    0.7676    1.5437 H       4  TRP44       0.0598
     64 HB1        -1.0796   -3.8523    1.1879 H       3  LEU33       0.0290
     65 HB2        -0.7730   -4.5948   -0.3709 H       3  LEU33       0.0290
     66 HG         -2.9814   -2.5459    0.2104 H       3  LEU33       0.0296
     67 HB1        -2.3850    2.0177   -1.2087 H       4  TRP44       0.0337
     68 HB2        -3.0169    2.5757    0.3305 H       4  TRP44       0.0337
     69 HG11        3.8455   -5.2400    0.0394 H       2  VAL22       0.0233
     70 HG12        4.6847   -5.4653   -1.5046 H       2  VAL22       0.0233
     71 HG13        3.0368   -4.8401   -1.4866 H       2  VAL22       0.0233
     72 HG21        5.9228   -3.7883    0.7734 H       2  VAL22       0.0233
     73 HG22        6.4244   -2.4439   -0.2684 H       2  VAL22       0.0233
     74 HG23        6.6020   -4.1062   -0.8314 H       2  VAL22       0.0233
     75 HD11       -2.3818   -4.1426   -2.3376 H       3  LEU33       0.0232
     76 HD12       -2.3316   -2.3796   -2.1622 H       3  LEU33       0.0232
     77 HD13       -3.8694   -3.2278   -2.0432 H       3  LEU33       0.0232
     78 HD21       -3.1542   -5.5661   -0.2436 H       3  LEU33       0.0232
     79 HD22       -4.5207   -4.4618   -0.0069 H       3  LEU33       0.0232
     80 HD23       -3.3686   -4.7325    1.3067 H       3  LEU33       0.0232
     81 HD1        -4.0857    0.5112   -2.6096 H       4  TRP44       0.0810
     82 HE3        -4.0155    0.9154    2.5677 H       4  TRP44       0.0624
     83 HZ2        -7.3749   -1.9448    0.2248 H       4  TRP44       0.0638
     84 HZ3        -5.6952   -0.3599    3.8610 H       4  TRP44       0.0618
     85 HH2        -7.3578   -1.7809    2.7090 H       4  TRP44       0.0618
@<TRIPOS>BOND
     1     1    18    2
     2     2    19    2
     3     3    24    2
     4     4    29    2
     5     5    31    2
     6     6    35   ar
     7     7    35   ar
     8     8    14    1
     9     8    17    1
    10     8    19   am
    11     9    18   am
    12     9    20    1
    13    10    21    1
    14    10    29   am
    15    11    23    1
    16    11    24   am
    17    12    26    1
    18    12    31   am
    19    13    39   ar
    20    13    40   ar
    21    14    15    1
    22    14    18    1
    23    15    16    1
    24    16    17    1
    25    19    21    1
    26    20    22    1
    27    20    24    1
    28    21    25    1
    29    22    32    1
    30    22    33    1
    31    23    27    1
    32    23    31    1
    33    25    35    1
    34    26    29    1
    35    26    30    1
    36    27    28    1
    37    28    36    1
    38    28    37    1
    39    30    34    1
    40    34    38   ar
    41    34    39   ar
    42    38    40   ar
    43    38    41   ar
    44    40    42   ar
    45    41    43   ar
    46    42    44   ar
    47    43    44   ar
    48     9    45    1
    49    10    46    1
    50    11    47    1
    51    12    48    1
    52    13    49    1
    53    14    50    1
    54    15    51    1
    55    15    52    1
    56    16    53    1
    57    16    54    1
    58    17    55    1
    59    17    56    1
    60    20    57    1
    61    21    58    1
    62    22    59    1
    63    23    60    1
    64    25    61    1
    65    25    62    1
    66    26    63    1
    67    27    64    1
    68    27    65    1
    69    28    66    1
    70    30    67    1
    71    30    68    1
    72    32    69    1
    73    32    70    1
    74    32    71    1
    75    33    72    1
    76    33    73    1
    77    33    74    1
    78    36    75    1
    79    36    76    1
    80    36    77    1
    81    37    78    1
    82    37    79    1
    83    37    80    1
    84    39    81    1
    85    41    82    1
    86    42    83    1
    87    43    84    1
    88    44    85    1
