@<TRIPOS>MOLECULE
01012527H
 86 88 0 0 0
SMALL
GASTEIGER

@<TRIPOS>ATOM
      1 C          -1.0532    2.1198   -0.0663 C.3     1  LIG11       0.0531
      2 C           0.0241    1.2039   -0.6310 C.3     1  LIG11      -0.0111
      3 C          -2.2631    2.0267   -0.9902 C.3     1  LIG11       0.0375
      4 C          -1.2683    1.4905    1.3038 C.2     1  LIG11       0.0509
      5 N          -0.7836    0.1382   -1.4384 N.4     1  LIG11       0.2448
      6 C           1.0170    1.8672   -1.6215 C.3     1  LIG11      -0.0039
      7 C          -2.2877    3.1440   -2.0280 C.ar    1  LIG11      -0.0313
      8 C          -2.2294    0.5844   -1.4931 C.3     1  LIG11      -0.0234
      9 O          -2.2007    0.6425    1.3667 O.co2   1  LIG11      -0.5493
     10 O          -0.4166    1.8167    2.1670 O.co2   1  LIG11      -0.5493
     11 C          -0.6685   -1.2656   -0.8235 C.3     1  LIG11       0.0465
     12 C           2.1984    2.7139   -1.0460 C.3     1  LIG11      -0.0298
     13 C          -2.0653    2.9488   -3.3978 C.ar    1  LIG11      -0.0122
     14 C          -2.5836    4.4586   -1.5648 C.ar    1  LIG11      -0.0124
     15 C           0.7225   -1.8827   -1.0115 C.2     1  LIG11       0.2608
     16 C           3.2861    2.9002   -2.1579 C.3     1  LIG11      -0.0479
     17 C           1.7141    4.1282   -0.6615 C.3     1  LIG11      -0.0596
     18 C           2.8264    2.0650    0.1988 C.3     1  LIG11      -0.0596
     19 C          -2.1449    4.0434   -4.2361 C.ar    1  LIG11       0.1702
     20 C          -2.6579    5.5546   -2.4339 C.ar    1  LIG11       0.1656
     21 N           1.0297   -3.0295   -0.2882 N.am    1  LIG11      -0.2971
     22 O           1.5254   -1.3497   -1.7822 O.2     1  LIG11      -0.2697
     23 C           4.1002    1.6501   -2.5253 C.3     1  LIG11      -0.0554
     24 C          -2.4319    5.3064   -3.7742 C.ar    1  LIG11       0.2075
     25 O          -1.9588    4.0074   -5.5841 O.3     1  LIG11      -0.4525
     26 O          -2.9365    6.8433   -2.0849 O.3     1  LIG11      -0.4913
     27 C           0.0205   -3.9300    0.2861 C.3     1  LIG11       0.0148
     28 C           2.4202   -3.4956   -0.2885 C.3     1  LIG11       0.0148
     29 C           5.1078    1.9499   -3.6267 C.3     1  LIG11      -0.0653
     30 O          -2.4621    6.2225   -4.7836 O.3     1  LIG11      -0.4489
     31 C          -2.1725    5.3940   -5.9229 C.3     1  LIG11       0.2334
     32 C          -3.1926    7.1018   -0.7105 C.3     1  LIG11       0.0790
     33 C          -0.2652   -5.1010   -0.6634 C.3     1  LIG11      -0.0374
     34 C           3.3030   -2.6231    0.6081 C.3     1  LIG11      -0.0374
     35 C          -1.4181   -5.9923   -0.2035 C.3     1  LIG11      -0.0545
     36 C           4.7086   -3.1915    0.8089 C.3     1  LIG11      -0.0545
     37 C          -2.7822   -5.3768   -0.4747 C.3     1  LIG11      -0.0652
     38 C           5.5047   -3.3119   -0.4809 C.3     1  LIG11      -0.0652
     39 H          -0.7260    3.1476    0.0917 H       1  LIG11       0.0424
     40 H           0.5949    0.6454    0.1178 H       1  LIG11       0.0858
     41 H          -3.1995    2.1474   -0.4268 H       1  LIG11       0.0409
     42 H          -0.3772    0.0717   -2.3785 H       1  LIG11       0.2042
     43 H           0.4727    2.4763   -2.3504 H       1  LIG11       0.0325
     44 H           1.4575    1.0628   -2.2159 H       1  LIG11       0.0325
     45 H          -2.5868    0.4318   -2.5144 H       1  LIG11       0.0821
     46 H          -2.8156   -0.0767   -0.8457 H       1  LIG11       0.0821
     47 H          -1.3945   -1.8932   -1.3507 H       1  LIG11       0.0913
     48 H          -0.9126   -1.1874    0.2372 H       1  LIG11       0.0913
     49 H          -1.8272    1.9866   -3.8323 H       1  LIG11       0.0658
     50 H          -2.7578    4.5936   -0.4987 H       1  LIG11       0.0658
     51 H           3.9979    3.6724   -1.8353 H       1  LIG11       0.0270
     52 H           2.8040    3.2923   -3.0638 H       1  LIG11       0.0270
     53 H           1.0927    4.1199    0.2369 H       1  LIG11       0.0235
     54 H           1.1415    4.5887   -1.4743 H       1  LIG11       0.0235
     55 H           2.5608    4.7891   -0.4406 H       1  LIG11       0.0235
     56 H           2.1534    2.1124    1.0608 H       1  LIG11       0.0235
     57 H           3.7499    2.5805    0.4865 H       1  LIG11       0.0235
     58 H           3.0675    1.0111    0.0265 H       1  LIG11       0.0235
     59 H           3.4489    0.8402   -2.8656 H       1  LIG11       0.0263
     60 H           4.6480    1.2826   -1.6513 H       1  LIG11       0.0263
     61 H          -0.9006   -3.3795    0.4851 H       1  LIG11       0.0464
     62 H           0.3939   -4.2920    1.2509 H       1  LIG11       0.0464
     63 H           2.7858   -3.4834   -1.3211 H       1  LIG11       0.0464
     64 H           2.4531   -4.5329    0.0625 H       1  LIG11       0.0464
     65 H           4.6043    2.2843   -4.5390 H       1  LIG11       0.0230
     66 H           5.6834    1.0502   -3.8667 H       1  LIG11       0.0230
     67 H           5.8110    2.7286   -3.3144 H       1  LIG11       0.0230
     68 H          -3.0113    5.4567   -6.6259 H       1  LIG11       0.1166
     69 H          -1.2718    5.7762   -6.4165 H       1  LIG11       0.1166
     70 H          -3.4030    8.1705   -0.6047 H       1  LIG11       0.0660
     71 H          -2.3165    6.8722   -0.0952 H       1  LIG11       0.0660
     72 H          -4.0750    6.5536   -0.3638 H       1  LIG11       0.0660
     73 H           0.6355   -5.7224   -0.7409 H       1  LIG11       0.0280
     74 H          -0.4641   -4.7274   -1.6757 H       1  LIG11       0.0280
     75 H           2.8279   -2.5202    1.5921 H       1  LIG11       0.0280
     76 H           3.3742   -1.6099    0.1949 H       1  LIG11       0.0280
     77 H          -1.3183   -6.2261    0.8624 H       1  LIG11       0.0263
     78 H          -1.3596   -6.9443   -0.7452 H       1  LIG11       0.0263
     79 H           4.6461   -4.1745    1.2902 H       1  LIG11       0.0263
     80 H           5.2537   -2.5359    1.4984 H       1  LIG11       0.0263
     81 H          -2.9257   -4.4501    0.0875 H       1  LIG11       0.0230
     82 H          -3.5740   -6.0743   -0.1836 H       1  LIG11       0.0230
     83 H          -2.9052   -5.1558   -1.5402 H       1  LIG11       0.0230
     84 H           5.0682   -4.0581   -1.1516 H       1  LIG11       0.0230
     85 H           6.5303   -3.6254   -0.2613 H       1  LIG11       0.0230
     86 H           5.5474   -2.3538   -1.0083 H       1  LIG11       0.0230
@<TRIPOS>BOND
     1     1     2    1
     2     1     3    1
     3     1     4    1
     4     2     5    1
     5     2     6    1
     6     3     8    1
     7     3     7    1
     8     4    10   ar
     9     4     9   ar
    10     5     8    1
    11     5    11    1
    12     6    12    1
    13     7    14   ar
    14     7    13   ar
    15    11    15    1
    16    12    18    1
    17    12    17    1
    18    12    16    1
    19    13    19   ar
    20    14    20   ar
    21    15    22    2
    22    15    21   am
    23    16    23    1
    24    19    25    1
    25    19    24   ar
    26    20    24   ar
    27    20    26    1
    28    21    28    1
    29    21    27    1
    30    23    29    1
    31    24    30    1
    32    25    31    1
    33    26    32    1
    34    27    33    1
    35    28    34    1
    36    30    31    1
    37    33    35    1
    38    34    36    1
    39    35    37    1
    40    36    38    1
    41     1    39    1
    42     2    40    1
    43     3    41    1
    44     5    42    1
    45     6    43    1
    46     6    44    1
    47     8    45    1
    48     8    46    1
    49    11    47    1
    50    11    48    1
    51    13    49    1
    52    14    50    1
    53    16    51    1
    54    16    52    1
    55    17    53    1
    56    17    54    1
    57    17    55    1
    58    18    56    1
    59    18    57    1
    60    18    58    1
    61    23    59    1
    62    23    60    1
    63    27    61    1
    64    27    62    1
    65    28    63    1
    66    28    64    1
    67    29    65    1
    68    29    66    1
    69    29    67    1
    70    31    68    1
    71    31    69    1
    72    32    70    1
    73    32    71    1
    74    32    72    1
    75    33    73    1
    76    33    74    1
    77    34    75    1
    78    34    76    1
    79    35    77    1
    80    35    78    1
    81    36    79    1
    82    36    80    1
    83    37    81    1
    84    37    82    1
    85    37    83    1
    86    38    84    1
    87    38    85    1
    88    38    86    1
@<TRIPOS>MOLECULE
16219006
 85 88 0 0 0
SMALL
GASTEIGER

@<TRIPOS>ATOM
      1 O           4.1297   -1.0309    2.2839 O.2     1  PRO11      -0.2738
      2 O           3.1280    0.9893   -1.3325 O.2     5  ASP55      -0.2735
      3 O           2.0597   -2.2796   -1.8408 O.2     2  VAL22      -0.2738
      4 O          -0.5938    3.0218    1.1224 O.2     4  TRP44      -0.2738
      5 O          -0.5720   -1.1304    1.8096 O.2     3  LEU33      -0.2738
      6 OD1         3.1126    4.8746   -3.3224 O.co2   5  ASP55      -0.5497
      7 OD2         3.6080    4.5596   -1.1198 O.co2   5  ASP55      -0.5497
      8 N           3.4199    1.7787    0.7719 N.am    1  PRO11      -0.2884
      9 N           4.1463   -1.1917    0.0007 N.am    2  VAL22      -0.3022
     10 N           0.4613    1.9513   -0.6132 N.am    5  ASP55      -0.3021
     11 N           1.2415   -2.7057    0.2527 N.am    3  LEU33      -0.3025
     12 N          -1.1708   -0.2817   -0.2398 N.am    4  TRP44      -0.3022
     13 NE1        -2.0277    1.6862   -4.1394 N.ar    4  TRP44      -0.3604
     14 CA          4.6329    0.9951    0.9917 C.3     1  PRO11       0.1023
     15 CB          5.2678    1.6168    2.2386 C.3     1  PRO11      -0.0243
     16 CG          4.0842    2.2303    2.9774 C.3     1  PRO11      -0.0350
     17 CD          3.2040    2.7330    1.8451 C.3     1  PRO11       0.0156
     18 C           4.2887   -0.4988    1.1865 C.2     1  PRO11       0.2342
     19 C           2.8357    1.8394   -0.4776 C.2     5  ASP55       0.2369
     20 CA          3.6764   -2.5708   -0.0416 C.3     2  VAL22       0.1017
     21 CA          1.6503    2.8145   -0.6902 C.3     5  ASP55       0.1047
     22 CB          4.6052   -3.4637   -0.8932 C.3     2  VAL22      -0.0197
     23 CA         -0.1394   -2.4940   -0.1511 C.3     3  LEU33       0.0996
     24 C           2.2645   -2.5136   -0.6508 C.2     2  VAL22       0.2342
     25 CB          1.7186    3.4698   -2.0596 C.3     5  ASP55       0.0138
     26 CA         -1.6401    1.0116    0.2713 C.3     4  TRP44       0.1034
     27 CB         -1.0293   -3.6929    0.1977 C.3     3  LEU33      -0.0236
     28 CG         -0.6846   -4.9894   -0.5662 C.3     3  LEU33      -0.0446
     29 C          -0.5192    2.0732    0.3425 C.2     4  TRP44       0.2343
     30 CB         -2.8427    1.5253   -0.5390 C.3     4  TRP44       0.0013
     31 C          -0.6387   -1.2422    0.5873 C.2     3  LEU33       0.2340
     32 CG1         4.0608   -4.8956   -0.9887 C.3     2  VAL22      -0.0605
     33 CG2         6.0199   -3.5085   -0.3041 C.3     2  VAL22      -0.0605
     34 CG         -2.5505    1.8551   -1.9768 C.ar    4  TRP44      -0.0201
     35 CG          2.9313    4.3856   -2.1710 C.2     5  ASP55       0.0440
     36 CD1        -1.6237   -6.1142   -0.1213 C.3     3  LEU33      -0.0626
     37 CD2        -0.7720   -4.8245   -2.0849 C.3     3  LEU33      -0.0626
     38 CD2        -2.4502    3.1719   -2.5360 C.ar    4  TRP44       0.0029
     39 CD1        -2.3362    0.9665   -3.0154 C.ar    4  TRP44       0.0060
     40 CE2        -2.1249    3.0320   -3.8845 C.ar    4  TRP44       0.0467
     41 CE3        -2.5896    4.4742   -2.0130 C.ar    4  TRP44      -0.0523
     42 CZ2        -1.9274    4.1252   -4.7357 C.ar    4  TRP44      -0.0378
     43 CZ3        -2.4086    5.5790   -2.8526 C.ar    4  TRP44      -0.0611
     44 CH2        -2.0798    5.4040   -4.1941 C.ar    4  TRP44      -0.0598
     45 H           3.9555   -0.6058   -0.8217 H       2  VAL22       0.1495
     46 H           0.4890    1.1350   -1.2055 H       5  ASP55       0.1495
     47 H           1.4538   -2.5575    1.2374 H       3  LEU33       0.1495
     48 H          -0.9614   -0.3330   -1.2285 H       4  TRP44       0.1495
     49 HE1        -1.7677    1.2962   -5.0346 H       4  TRP44       0.1653
     50 HA          5.3093    1.0894    0.1332 H       1  PRO11       0.0597
     51 HB1         5.9572    2.4158    1.9382 H       1  PRO11       0.0288
     52 HB2         5.8253    0.9068    2.8562 H       1  PRO11       0.0288
     53 HG1         4.3788    3.0265    3.6664 H       1  PRO11       0.0281
     54 HG2         3.5590    1.4572    3.5503 H       1  PRO11       0.0281
     55 HD1         2.1488    2.7715    2.1267 H       1  PRO11       0.0465
     56 HD2         3.5277    3.7219    1.5042 H       1  PRO11       0.0465
     57 HA          3.6168   -2.9776    0.9748 H       2  VAL22       0.0597
     58 HA          1.5946    3.5734    0.0926 H       5  ASP55       0.0598
     59 HB          4.6757   -3.0580   -1.9109 H       2  VAL22       0.0318
     60 HA         -0.1942   -2.3018   -1.2262 H       3  LEU33       0.0594
     61 HB1         0.8173    4.0697   -2.2342 H       5  ASP55       0.0348
     62 HB2         1.7681    2.7191   -2.8581 H       5  ASP55       0.0348
     63 HA         -1.9683    0.8489    1.3057 H       4  TRP44       0.0598
     64 HB1        -2.0766   -3.4263    0.0007 H       3  LEU33       0.0290
     65 HB2        -0.9656   -3.8917    1.2765 H       3  LEU33       0.0290
     66 HG          0.3395   -5.2906   -0.3132 H       3  LEU33       0.0296
     67 HB1        -3.2534    2.4119   -0.0407 H       4  TRP44       0.0337
     68 HB2        -3.6386    0.7687   -0.5182 H       4  TRP44       0.0337
     69 HG11        3.9329   -5.3380    0.0055 H       2  VAL22       0.0233
     70 HG12        4.7444   -5.5350   -1.5574 H       2  VAL22       0.0233
     71 HG13        3.0923   -4.9240   -1.4983 H       2  VAL22       0.0233
     72 HG21        6.0084   -3.8855    0.7245 H       2  VAL22       0.0233
     73 HG22        6.4806   -2.5160   -0.2981 H       2  VAL22       0.0233
     74 HG23        6.6659   -4.1659   -0.8964 H       2  VAL22       0.0233
     75 HD11       -2.6661   -5.8795   -0.3632 H       3  LEU33       0.0232
     76 HD12       -1.5533   -6.2774    0.9588 H       3  LEU33       0.0232
     77 HD13       -1.3658   -7.0557   -0.6183 H       3  LEU33       0.0232
     78 HD21       -1.7462   -4.4248   -2.3862 H       3  LEU33       0.0232
     79 HD22       -0.6299   -5.7859   -2.5904 H       3  LEU33       0.0232
     80 HD23        0.0041   -4.1511   -2.4599 H       3  LEU33       0.0232
     81 HD1        -2.3460   -0.1139   -3.0517 H       4  TRP44       0.0810
     82 HE3        -2.8154    4.6281   -0.9620 H       4  TRP44       0.0624
     83 HZ2        -1.6422    3.9939   -5.7740 H       4  TRP44       0.0638
     84 HZ3        -2.4997    6.5822   -2.4450 H       4  TRP44       0.0618
     85 HH2        -1.9126    6.2744   -4.8236 H       4  TRP44       0.0618
@<TRIPOS>BOND
     1     1    18    2
     2     2    19    2
     3     3    24    2
     4     4    29    2
     5     5    31    2
     6     6    35   ar
     7     7    35   ar
     8     8    14    1
     9     8    17    1
    10     8    19   am
    11     9    18   am
    12     9    20    1
    13    10    21    1
    14    10    29   am
    15    11    23    1
    16    11    24   am
    17    12    26    1
    18    12    31   am
    19    13    39   ar
    20    13    40   ar
    21    14    15    1
    22    14    18    1
    23    15    16    1
    24    16    17    1
    25    19    21    1
    26    20    22    1
    27    20    24    1
    28    21    25    1
    29    22    32    1
    30    22    33    1
    31    23    27    1
    32    23    31    1
    33    25    35    1
    34    26    29    1
    35    26    30    1
    36    27    28    1
    37    28    36    1
    38    28    37    1
    39    30    34    1
    40    34    38   ar
    41    34    39   ar
    42    38    40   ar
    43    38    41   ar
    44    40    42   ar
    45    41    43   ar
    46    42    44   ar
    47    43    44   ar
    48     9    45    1
    49    10    46    1
    50    11    47    1
    51    12    48    1
    52    13    49    1
    53    14    50    1
    54    15    51    1
    55    15    52    1
    56    16    53    1
    57    16    54    1
    58    17    55    1
    59    17    56    1
    60    20    57    1
    61    21    58    1
    62    22    59    1
    63    23    60    1
    64    25    61    1
    65    25    62    1
    66    26    63    1
    67    27    64    1
    68    27    65    1
    69    28    66    1
    70    30    67    1
    71    30    68    1
    72    32    69    1
    73    32    70    1
    74    32    71    1
    75    33    72    1
    76    33    73    1
    77    33    74    1
    78    36    75    1
    79    36    76    1
    80    36    77    1
    81    37    78    1
    82    37    79    1
    83    37    80    1
    84    39    81    1
    85    41    82    1
    86    42    83    1
    87    43    84    1
    88    44    85    1
