@<TRIPOS>MOLECULE
9957262
 56 59 0 0 0
SMALL
GASTEIGER

@<TRIPOS>ATOM
      1 S          -0.1731    1.9296    0.4238 S.O2    1  LIG11       0.0668
      2 O           3.3103    0.6872   -0.2175 O.3     1  LIG11      -0.4435
      3 O           3.7732   -1.5841   -1.5345 O.3     1  LIG11      -0.4771
      4 O           0.2170    1.8409   -0.9690 O.2     1  LIG11      -0.1505
      5 O          -0.0751    3.1874    1.1358 O.2     1  LIG11      -0.1505
      6 O           3.6802    3.6023   -0.4399 O.3     1  LIG11      -0.4914
      7 N           0.7385    0.8263    1.3287 N.pl3   1  LIG11      -0.1968
      8 N           0.3428   -1.3220    0.6901 N.ar    1  LIG11      -0.2044
      9 N           1.7796   -2.5544   -0.7553 N.ar    1  LIG11      -0.1867
     10 N          -1.5794   -3.3133    0.3804 N.ar    1  LIG11      -0.2331
     11 N           0.1414   -4.7961   -0.3593 N.ar    1  LIG11      -0.2331
     12 C           1.2074   -0.3022    0.6111 C.ar    1  LIG11       0.1883
     13 C           2.3923   -0.3198   -0.0985 C.ar    1  LIG11       0.2307
     14 C           2.6109   -1.4952   -0.7876 C.ar    1  LIG11       0.2639
     15 C           3.6113    1.4739    0.8697 C.ar    1  LIG11       0.1702
     16 C          -1.8213    1.4107    0.5998 C.2     1  LIG11       0.0729
     17 C           0.6582   -2.4313   -0.0148 C.ar    1  LIG11       0.2027
     18 C           3.7691    2.8579    0.7054 C.ar    1  LIG11       0.1621
     19 C          -2.3125    0.4278   -0.1692 C.2     1  LIG11      -0.0353
     20 C          -3.6981   -0.0466   -0.0685 C.ar    1  LIG11      -0.0237
     21 C           3.8237    0.8944    2.1339 C.ar    1  LIG11      -0.0157
     22 C          -0.3032   -3.5698    0.0054 C.ar    1  LIG11       0.1978
     23 C           4.0427    3.6435    1.8342 C.ar    1  LIG11      -0.0163
     24 C           4.0964    1.6921    3.2455 C.ar    1  LIG11      -0.0581
     25 C           4.1944    3.0706    3.0972 C.ar    1  LIG11      -0.0581
     26 C          -4.3374   -0.2285    1.1653 C.ar    1  LIG11      -0.0546
     27 C          -4.3879   -0.3738   -1.2417 C.ar    1  LIG11      -0.0546
     28 C          -5.6522   -0.6975    1.2213 C.ar    1  LIG11      -0.0612
     29 C          -5.7028   -0.8417   -1.1854 C.ar    1  LIG11      -0.0612
     30 C          -6.3357   -1.0002    0.0457 C.ar    1  LIG11      -0.0617
     31 C           3.8881   -2.7959   -2.2734 C.3     1  LIG11       0.0805
     32 C           3.5945    2.9357   -1.6898 C.3     1  LIG11       0.0790
     33 C          -2.4363   -4.3499    0.3682 C.ar    1  LIG11       0.0315
     34 C          -0.7578   -5.7967   -0.3382 C.ar    1  LIG11       0.0315
     35 C          -2.0742   -5.6280    0.0180 C.ar    1  LIG11      -0.0254
     36 H           0.2117    0.5272    2.1456 H       1  LIG11       0.1753
     37 H          -2.4097    1.9384    1.3362 H       1  LIG11       0.0838
     38 H          -1.6992   -0.0509   -0.9285 H       1  LIG11       0.0637
     39 H           3.7673   -0.1822    2.2677 H       1  LIG11       0.0655
     40 H           4.1384    4.7215    1.7216 H       1  LIG11       0.0655
     41 H           4.2291    1.2391    4.2240 H       1  LIG11       0.0619
     42 H           4.3980    3.7028    3.9572 H       1  LIG11       0.0619
     43 H          -3.8188   -0.0176    2.0970 H       1  LIG11       0.0623
     44 H          -3.9112   -0.2535   -2.2124 H       1  LIG11       0.0623
     45 H          -6.1411   -0.8273    2.1834 H       1  LIG11       0.0618
     46 H          -6.2325   -1.0790   -2.1044 H       1  LIG11       0.0618
     47 H          -7.3601   -1.3605    0.0887 H       1  LIG11       0.0618
     48 H           4.8232   -2.7526   -2.8404 H       1  LIG11       0.0660
     49 H           3.0680   -2.9018   -2.9920 H       1  LIG11       0.0660
     50 H           3.9433   -3.6636   -1.6069 H       1  LIG11       0.0660
     51 H           3.6710    3.6945   -2.4750 H       1  LIG11       0.0660
     52 H           2.6256    2.4466   -1.8105 H       1  LIG11       0.0660
     53 H           4.4244    2.2364   -1.8334 H       1  LIG11       0.0660
     54 H          -3.4561   -4.1108    0.6573 H       1  LIG11       0.0831
     55 H          -0.3738   -6.7707   -0.6283 H       1  LIG11       0.0831
     56 H          -2.7788   -6.4476    0.0212 H       1  LIG11       0.0648
@<TRIPOS>BOND
     1     1     4    2
     2     1     5    2
     3     1     7    1
     4     1    16    1
     5     2    13    1
     6     2    15    1
     7     3    14    1
     8     3    31    1
     9     6    18    1
    10     6    32    1
    11     7    12    1
    12     8    12   ar
    13     8    17   ar
    14     9    14   ar
    15     9    17   ar
    16    10    22   ar
    17    10    33   ar
    18    11    22   ar
    19    11    34   ar
    20    12    13   ar
    21    13    14   ar
    22    15    18   ar
    23    15    21   ar
    24    16    19    2
    25    17    22    1
    26    18    23   ar
    27    19    20    1
    28    20    26   ar
    29    20    27   ar
    30    21    24   ar
    31    23    25   ar
    32    24    25   ar
    33    26    28   ar
    34    27    29   ar
    35    28    30   ar
    36    29    30   ar
    37    33    35   ar
    38    34    35   ar
    39     7    36    1
    40    16    37    1
    41    19    38    1
    42    21    39    1
    43    23    40    1
    44    24    41    1
    45    25    42    1
    46    26    43    1
    47    27    44    1
    48    28    45    1
    49    29    46    1
    50    30    47    1
    51    31    48    1
    52    31    49    1
    53    31    50    1
    54    32    51    1
    55    32    52    1
    56    32    53    1
    57    33    54    1
    58    34    55    1
    59    35    56    1
@<TRIPOS>MOLECULE
16219006
 85 88 0 0 0
SMALL
GASTEIGER

@<TRIPOS>ATOM
      1 O           4.3586   -1.0577    2.2239 O.2     1  PRO11      -0.2738
      2 O           3.1691    1.0531   -1.3475 O.2     5  ASP55      -0.2735
      3 O           2.0418   -2.1972   -1.9006 O.2     2  VAL22      -0.2738
      4 O          -0.4848    2.9439    1.2396 O.2     4  TRP44      -0.2738
      5 O          -0.1776   -1.0733    1.7469 O.2     3  LEU33      -0.2738
      6 OD1         3.5656    4.6081   -1.0946 O.co2   5  ASP55      -0.5497
      7 OD2         3.0320    4.9705   -3.2821 O.co2   5  ASP55      -0.5497
      8 N           3.4228    1.7983    0.7792 N.am    1  PRO11      -0.2884
      9 N           4.1406   -1.1025   -0.0538 N.am    2  VAL22      -0.3022
     10 N           0.4596    1.9519   -0.6049 N.am    5  ASP55      -0.3021
     11 N           1.3080   -2.8060    0.1758 N.am    3  LEU33      -0.3025
     12 N          -1.0921   -0.3074   -0.2070 N.am    4  TRP44      -0.3022
     13 NE1        -5.4750   -0.7353   -1.3584 N.ar    4  TRP44      -0.3604
     14 CA          4.6591    1.0471    0.9953 C.3     1  PRO11       0.1023
     15 CB          5.2633    1.6632    2.2602 C.3     1  PRO11      -0.0243
     16 CG          4.0534    2.2194    3.0008 C.3     1  PRO11      -0.0350
     17 CD          3.1717    2.7234    1.8707 C.3     1  PRO11       0.0156
     18 C           4.3736   -0.4649    1.1467 C.2     1  PRO11       0.2342
     19 C           2.8504    1.8747   -0.4748 C.2     5  ASP55       0.2369
     20 CA          3.7241   -2.4939   -0.1472 C.3     2  VAL22       0.1017
     21 CA          1.6448    2.8248   -0.6818 C.3     5  ASP55       0.1047
     22 CB          4.7448   -3.3400   -0.9392 C.3     2  VAL22      -0.0197
     23 CA         -0.0876   -2.5579   -0.1606 C.3     3  LEU33       0.0996
     24 C           2.2990   -2.5001   -0.7377 C.2     2  VAL22       0.2342
     25 CB          1.7019    3.4845   -2.0491 C.3     5  ASP55       0.0138
     26 CA         -1.5564    0.9522    0.3871 C.3     4  TRP44       0.1034
     27 CB         -1.0203   -3.6719    0.3349 C.3     3  LEU33      -0.0236
     28 CG         -0.9920   -4.9569   -0.5204 C.3     3  LEU33      -0.0446
     29 C          -0.4428    2.0158    0.4336 C.2     4  TRP44       0.2343
     30 CB         -2.7478    1.5449   -0.3819 C.3     4  TRP44       0.0013
     31 C          -0.4467   -1.2477    0.5602 C.2     3  LEU33       0.2340
     32 CG1         5.0027   -2.8639   -2.3713 C.3     2  VAL22      -0.0605
     33 CG2         4.3511   -4.8198   -0.9436 C.3     2  VAL22      -0.0605
     34 CG         -3.9169    0.6082   -0.4979 C.ar    4  TRP44      -0.0201
     35 CG          2.8853    4.4409   -2.1445 C.2     5  ASP55       0.0440
     36 CD1         0.3228   -5.7277   -0.4010 C.3     3  LEU33      -0.0626
     37 CD2        -2.1508   -5.8728   -0.1145 C.3     3  LEU33      -0.0626
     38 CD2        -4.7354    0.1077    0.5671 C.ar    4  TRP44       0.0029
     39 CD1        -4.4115    0.0670   -1.6695 C.ar    4  TRP44       0.0060
     40 CE2        -5.6904   -0.7368   -0.0007 C.ar    4  TRP44       0.0467
     41 CE3        -4.7510    0.2900    1.9656 C.ar    4  TRP44      -0.0523
     42 CZ2        -6.6534   -1.4133    0.7586 C.ar    4  TRP44      -0.0378
     43 CZ3        -5.7038   -0.3818    2.7404 C.ar    4  TRP44      -0.0611
     44 CH2        -6.6397   -1.2217    2.1431 C.ar    4  TRP44      -0.0598
     45 H           3.9091   -0.4870   -0.8437 H       2  VAL22       0.1495
     46 H           0.5357    1.0798   -1.1140 H       5  ASP55       0.1495
     47 H           1.5449   -2.6704    1.1569 H       3  LEU33       0.1495
     48 H          -1.2143   -0.4538   -1.2008 H       4  TRP44       0.1495
     49 HE1        -6.0296   -1.2521   -2.0259 H       4  TRP44       0.1653
     50 HA          5.3391    1.1840    0.1453 H       1  PRO11       0.0597
     51 HB1         5.9267    2.4921    1.9825 H       1  PRO11       0.0288
     52 HB2         5.8411    0.9617    2.8687 H       1  PRO11       0.0288
     53 HG1         4.3147    3.0065    3.7135 H       1  PRO11       0.0281
     54 HG2         3.5464    1.4150    3.5467 H       1  PRO11       0.0281
     55 HD1         2.1139    2.7295    2.1434 H       1  PRO11       0.0465
     56 HD2         3.4728    3.7275    1.5537 H       1  PRO11       0.0465
     57 HA          3.6735   -2.9105    0.8664 H       2  VAL22       0.0597
     58 HA          1.5848    3.5837    0.1013 H       5  ASP55       0.0598
     59 HB          5.7032   -3.2627   -0.4067 H       2  VAL22       0.0318
     60 HA         -0.2098   -2.4239   -1.2403 H       3  LEU33       0.0594
     61 HB1         0.7829    4.0556   -2.2298 H       5  ASP55       0.0348
     62 HB2         1.7840    2.7390   -2.8498 H       5  ASP55       0.0348
     63 HA         -1.8349    0.7453    1.4270 H       4  TRP44       0.0598
     64 HB1        -2.0477   -3.2820    0.3301 H       3  LEU33       0.0290
     65 HB2        -0.7945   -3.9180    1.3812 H       3  LEU33       0.0290
     66 HG         -1.1373   -4.6854   -1.5736 H       3  LEU33       0.0296
     67 HB1        -2.4260    1.8401   -1.3903 H       4  TRP44       0.0337
     68 HB2        -3.0846    2.4676    0.1087 H       4  TRP44       0.0337
     69 HG11        4.1305   -3.0065   -3.0156 H       2  VAL22       0.0233
     70 HG12        5.8274   -3.4333   -2.8148 H       2  VAL22       0.0233
     71 HG13        5.2845   -1.8071   -2.3992 H       2  VAL22       0.0233
     72 HG21        3.4502   -4.9940   -1.5400 H       2  VAL22       0.0233
     73 HG22        4.1636   -5.1797    0.0736 H       2  VAL22       0.0233
     74 HG23        5.1541   -5.4311   -1.3694 H       2  VAL22       0.0233
     75 HD11        0.5896   -5.9037    0.6465 H       3  LEU33       0.0232
     76 HD12        1.1420   -5.1884   -0.8805 H       3  LEU33       0.0232
     77 HD13        0.2538   -6.7011   -0.8989 H       3  LEU33       0.0232
     78 HD21       -2.0671   -6.1787    0.9338 H       3  LEU33       0.0232
     79 HD22       -2.1667   -6.7777   -0.7318 H       3  LEU33       0.0232
     80 HD23       -3.1127   -5.3663   -0.2466 H       3  LEU33       0.0232
     81 HD1        -4.0991    0.1922   -2.6980 H       4  TRP44       0.0810
     82 HE3        -4.0286    0.9432    2.4471 H       4  TRP44       0.0624
     83 HZ2        -7.3861   -2.0653    0.2955 H       4  TRP44       0.0638
     84 HZ3        -5.7076   -0.2441    3.8188 H       4  TRP44       0.0618
     85 HH2        -7.3714   -1.7349    2.7624 H       4  TRP44       0.0618
@<TRIPOS>BOND
     1     1    18    2
     2     2    19    2
     3     3    24    2
     4     4    29    2
     5     5    31    2
     6     6    35   ar
     7     7    35   ar
     8     8    14    1
     9     8    17    1
    10     8    19   am
    11     9    18   am
    12     9    20    1
    13    10    21    1
    14    10    29   am
    15    11    23    1
    16    11    24   am
    17    12    26    1
    18    12    31   am
    19    13    39   ar
    20    13    40   ar
    21    14    15    1
    22    14    18    1
    23    15    16    1
    24    16    17    1
    25    19    21    1
    26    20    22    1
    27    20    24    1
    28    21    25    1
    29    22    32    1
    30    22    33    1
    31    23    27    1
    32    23    31    1
    33    25    35    1
    34    26    29    1
    35    26    30    1
    36    27    28    1
    37    28    36    1
    38    28    37    1
    39    30    34    1
    40    34    38   ar
    41    34    39   ar
    42    38    40   ar
    43    38    41   ar
    44    40    42   ar
    45    41    43   ar
    46    42    44   ar
    47    43    44   ar
    48     9    45    1
    49    10    46    1
    50    11    47    1
    51    12    48    1
    52    13    49    1
    53    14    50    1
    54    15    51    1
    55    15    52    1
    56    16    53    1
    57    16    54    1
    58    17    55    1
    59    17    56    1
    60    20    57    1
    61    21    58    1
    62    22    59    1
    63    23    60    1
    64    25    61    1
    65    25    62    1
    66    26    63    1
    67    27    64    1
    68    27    65    1
    69    28    66    1
    70    30    67    1
    71    30    68    1
    72    32    69    1
    73    32    70    1
    74    32    71    1
    75    33    72    1
    76    33    73    1
    77    33    74    1
    78    36    75    1
    79    36    76    1
    80    36    77    1
    81    37    78    1
    82    37    79    1
    83    37    80    1
    84    39    81    1
    85    41    82    1
    86    42    83    1
    87    43    84    1
    88    44    85    1
