@<TRIPOS>MOLECULE
177236
 51 53 0 0 0
SMALL
GASTEIGER

@<TRIPOS>ATOM
      1 O          -1.4913   -0.9617    2.2513 O.3     1  LIG11      -0.3632
      2 O          -0.1994    1.3334   -0.4913 O.3     1  LIG11      -0.4494
      3 O          -0.9635    3.2807    1.1703 O.co2   1  LIG11      -0.5459
      4 O          -1.7189    1.8449    2.7475 O.co2   1  LIG11      -0.5459
      5 O           4.2240    2.3471    0.6675 O.3     1  LIG11      -0.4794
      6 O           2.0512    4.3444   -3.0707 O.3     1  LIG11      -0.4794
      7 N           1.9828    1.8539    0.1593 N.ar    1  LIG11      -0.1594
      8 N           0.9747    2.8692   -1.7377 N.ar    1  LIG11      -0.1594
      9 C          -1.2706   -0.4214    0.9118 C.3     1  LIG11       0.1609
     10 C          -0.4794    0.9371    0.8892 C.3     1  LIG11       0.1791
     11 C          -2.6734   -0.2221    0.2641 C.ar    1  LIG11      -0.0075
     12 C          -0.5544   -1.6292    0.2101 C.ar    1  LIG11      -0.0075
     13 C          -2.8190   -0.0653   -1.1277 C.ar    1  LIG11      -0.0554
     14 C          -1.2038   -2.8851    0.1810 C.ar    1  LIG11      -0.0554
     15 C          -3.8411   -0.1950    1.0481 C.ar    1  LIG11      -0.0554
     16 C           0.7386   -1.5679   -0.3324 C.ar    1  LIG11      -0.0554
     17 C          -1.1501    2.1222    1.6510 C.2     1  LIG11       0.0856
     18 C          -0.3815   -0.9675    3.1344 C.3     1  LIG11       0.0382
     19 C          -4.0798    0.0907   -1.7106 C.ar    1  LIG11      -0.0614
     20 C          -0.5971   -4.0137   -0.3750 C.ar    1  LIG11      -0.0614
     21 C          -5.1027   -0.0508    0.4647 C.ar    1  LIG11      -0.0614
     22 C           1.3446   -2.6955   -0.8984 C.ar    1  LIG11      -0.0614
     23 C          -5.2222    0.0893   -0.9150 C.ar    1  LIG11      -0.0617
     24 C           0.6784   -3.9171   -0.9188 C.ar    1  LIG11      -0.0617
     25 C           0.9330    2.1091   -0.6360 C.ar    1  LIG11       0.3249
     26 C           3.0933    2.5455   -0.1065 C.ar    1  LIG11       0.2240
     27 C           2.1066    3.5577   -1.9505 C.ar    1  LIG11       0.2240
     28 C           3.2162    3.4283   -1.1483 C.ar    1  LIG11       0.0617
     29 C           4.0072    1.4122    1.7221 C.3     1  LIG11       0.0804
     30 C           3.0652    5.3278   -3.2083 C.3     1  LIG11       0.0804
     31 H           0.4610    0.7620    1.4241 H       1  LIG11       0.0834
     32 H          -1.9409   -0.0534   -1.7704 H       1  LIG11       0.0621
     33 H          -2.1963   -2.9817    0.6203 H       1  LIG11       0.0621
     34 H          -3.7661   -0.2667    2.1324 H       1  LIG11       0.0621
     35 H           1.3127   -0.6490   -0.3180 H       1  LIG11       0.0621
     36 H          -0.6745   -1.5195    4.0322 H       1  LIG11       0.0524
     37 H           0.4829   -1.4747    2.6977 H       1  LIG11       0.0524
     38 H          -0.1028    0.0394    3.4504 H       1  LIG11       0.0524
     39 H          -4.1612    0.2262   -2.7847 H       1  LIG11       0.0618
     40 H          -1.1235   -4.9633   -0.3729 H       1  LIG11       0.0618
     41 H          -5.9846   -0.0291    1.0975 H       1  LIG11       0.0618
     42 H           2.3439   -2.6118   -1.3161 H       1  LIG11       0.0618
     43 H          -6.2008    0.2184   -1.3659 H       1  LIG11       0.0618
     44 H           1.1554   -4.7912   -1.3509 H       1  LIG11       0.0618
     45 H           4.1467    3.9460   -1.3131 H       1  LIG11       0.0724
     46 H           4.9415    1.3228    2.2846 H       1  LIG11       0.0660
     47 H           3.2330    1.7624    2.4138 H       1  LIG11       0.0660
     48 H           3.7634    0.4190    1.3273 H       1  LIG11       0.0660
     49 H           2.7945    5.9746   -4.0484 H       1  LIG11       0.0660
     50 H           3.1448    5.9585   -2.3160 H       1  LIG11       0.0660
     51 H           4.0271    4.8623   -3.4477 H       1  LIG11       0.0660
@<TRIPOS>BOND
     1     1     9    1
     2     1    18    1
     3     2    10    1
     4     2    25    1
     5     3    17   ar
     6     4    17   ar
     7     5    26    1
     8     5    29    1
     9     6    27    1
    10     6    30    1
    11     7    25   ar
    12     7    26   ar
    13     8    25   ar
    14     8    27   ar
    15     9    10    1
    16     9    11    1
    17     9    12    1
    18    10    17    1
    19    11    13   ar
    20    11    15   ar
    21    12    14   ar
    22    12    16   ar
    23    13    19   ar
    24    14    20   ar
    25    15    21   ar
    26    16    22   ar
    27    19    23   ar
    28    20    24   ar
    29    21    23   ar
    30    22    24   ar
    31    26    28   ar
    32    27    28   ar
    33    10    31    1
    34    13    32    1
    35    14    33    1
    36    15    34    1
    37    16    35    1
    38    18    36    1
    39    18    37    1
    40    18    38    1
    41    19    39    1
    42    20    40    1
    43    21    41    1
    44    22    42    1
    45    23    43    1
    46    24    44    1
    47    28    45    1
    48    29    46    1
    49    29    47    1
    50    29    48    1
    51    30    49    1
    52    30    50    1
    53    30    51    1
@<TRIPOS>MOLECULE
16219006
 85 88 0 0 0
SMALL
GASTEIGER

@<TRIPOS>ATOM
      1 O           4.3195   -1.0226    2.2431 O.2     1  PRO11      -0.2738
      2 O           3.2274    1.0827   -1.3486 O.2     5  ASP55      -0.2735
      3 O           2.0011   -1.8442   -1.8094 O.2     2  VAL22      -0.2738
      4 O          -0.4552    2.9558    1.2598 O.2     4  TRP44      -0.2738
      5 O          -0.3370   -1.1994    1.7397 O.2     3  LEU33      -0.2738
      6 OD1         3.5572    4.6362   -1.0997 O.co2   5  ASP55      -0.5497
      7 OD2         3.0185    4.9577   -3.2919 O.co2   5  ASP55      -0.5497
      8 N           3.4694    1.8115    0.7825 N.am    1  PRO11      -0.2884
      9 N           4.1794   -1.1050   -0.0422 N.am    2  VAL22      -0.3022
     10 N           0.4937    1.9384   -0.5689 N.am    5  ASP55      -0.3021
     11 N           1.2149   -2.8434    0.0867 N.am    3  LEU33      -0.3025
     12 N          -1.1149   -0.2794   -0.2127 N.am    4  TRP44      -0.3022
     13 NE1        -5.4688   -0.6785   -1.3444 N.ar    4  TRP44      -0.3604
     14 CA          4.7019    1.0544    0.9936 C.3     1  PRO11       0.1023
     15 CB          5.3132    1.6680    2.2560 C.3     1  PRO11      -0.0243
     16 CG          4.1093    2.2300    3.0021 C.3     1  PRO11      -0.0350
     17 CD          3.2214    2.7340    1.8766 C.3     1  PRO11       0.0156
     18 C           4.3911   -0.4511    1.1566 C.2     1  PRO11       0.2342
     19 C           2.8935    1.8896   -0.4688 C.2     5  ASP55       0.2369
     20 CA          3.6391   -2.4565   -0.1024 C.3     2  VAL22       0.1017
     21 CA          1.6716    2.8217   -0.6638 C.3     5  ASP55       0.1047
     22 CB          4.5684   -3.4186   -0.8725 C.3     2  VAL22      -0.0197
     23 CA         -0.1668   -2.5441   -0.2674 C.3     3  LEU33       0.0996
     24 C           2.2277   -2.3484   -0.7110 C.2     2  VAL22       0.2342
     25 CB          1.7042    3.4792   -2.0336 C.3     5  ASP55       0.0138
     26 CA         -1.5493    0.9737    0.4132 C.3     4  TRP44       0.1034
     27 CB         -1.1089   -3.6939    0.1009 C.3     3  LEU33      -0.0236
     28 CG         -0.7966   -5.0223   -0.6192 C.3     3  LEU33      -0.0446
     29 C          -0.4196    2.0225    0.4598 C.2     4  TRP44       0.2343
     30 CB         -2.7463    1.5916   -0.3279 C.3     4  TRP44       0.0013
     31 C          -0.5425   -1.2848    0.5304 C.2     3  LEU33       0.2340
     32 CG1         4.8296   -3.0184   -2.3272 C.3     2  VAL22      -0.0605
     33 CG2         4.0455   -4.8571   -0.8135 C.3     2  VAL22      -0.0605
     34 CG         -3.9176    0.6582   -0.4610 C.ar    4  TRP44      -0.0201
     35 CG          2.8784    4.4445   -2.1460 C.2     5  ASP55       0.0440
     36 CD1        -1.7811   -6.1018   -0.1637 C.3     3  LEU33      -0.0626
     37 CD2        -0.8415   -4.8925   -2.1429 C.3     3  LEU33      -0.0626
     38 CD2        -4.7364    0.1388    0.5945 C.ar    4  TRP44       0.0029
     39 CD1        -4.4080    0.1325   -1.6416 C.ar    4  TRP44       0.0060
     40 CE2        -5.6868   -0.7006    0.0131 C.ar    4  TRP44       0.0467
     41 CE3        -4.7527    0.2999    1.9956 C.ar    4  TRP44      -0.0523
     42 CZ2        -6.6478   -1.3927    0.7612 C.ar    4  TRP44      -0.0378
     43 CZ3        -5.7042   -0.3872    2.7591 C.ar    4  TRP44      -0.0611
     44 CH2        -6.6361   -1.2220    2.1483 C.ar    4  TRP44      -0.0598
     45 H           3.9644   -0.4903   -0.8383 H       2  VAL22       0.1495
     46 H           0.5753    1.0618   -1.0685 H       5  ASP55       0.1495
     47 H           1.4061   -2.8626    1.0856 H       3  LEU33       0.1495
     48 H          -1.1548   -0.3534   -1.2217 H       4  TRP44       0.1495
     49 HE1        -6.0188   -1.1896   -2.0198 H       4  TRP44       0.1653
     50 HA          5.3797    1.1788    0.1404 H       1  PRO11       0.0597
     51 HB1         5.9796    2.4936    1.9748 H       1  PRO11       0.0288
     52 HB2         5.8900    0.9628    2.8617 H       1  PRO11       0.0288
     53 HG1         4.3771    3.0180    3.7111 H       1  PRO11       0.0281
     54 HG2         3.6029    1.4292    3.5534 H       1  PRO11       0.0281
     55 HD1         2.1644    2.7375    2.1543 H       1  PRO11       0.0465
     56 HD2         3.5184    3.7394    1.5594 H       1  PRO11       0.0465
     57 HA          3.5442   -2.8377    0.9214 H       2  VAL22       0.0597
     58 HA          1.6135    3.5828    0.1173 H       5  ASP55       0.0598
     59 HB          5.5415   -3.4056   -0.3627 H       2  VAL22       0.0318
     60 HA         -0.2473   -2.3237   -1.3362 H       3  LEU33       0.0594
     61 HB1         0.7784    4.0426   -2.2024 H       5  ASP55       0.0348
     62 HB2         1.7805    2.7320   -2.8330 H       5  ASP55       0.0348
     63 HA         -1.8152    0.7547    1.4538 H       4  TRP44       0.0598
     64 HB1        -2.1413   -3.3911   -0.1197 H       3  LEU33       0.0290
     65 HB2        -1.0696   -3.8650    1.1854 H       3  LEU33       0.0290
     66 HG          0.2105   -5.3529   -0.3357 H       3  LEU33       0.0296
     67 HB1        -2.4329    1.9149   -1.3302 H       4  TRP44       0.0337
     68 HB2        -3.0770    2.5004    0.1916 H       4  TRP44       0.0337
     69 HG11        3.9294   -3.1046   -2.9438 H       2  VAL22       0.0233
     70 HG12        5.5893   -3.6735   -2.7698 H       2  VAL22       0.0233
     71 HG13        5.2022   -1.9918   -2.4006 H       2  VAL22       0.0233
     72 HG21        3.0960   -4.9646   -1.3489 H       2  VAL22       0.0233
     73 HG22        3.8895   -5.1735    0.2231 H       2  VAL22       0.0233
     74 HG23        4.7640   -5.5485   -1.2668 H       2  VAL22       0.0233
     75 HD11       -2.8103   -5.8398   -0.4322 H       3  LEU33       0.0232
     76 HD12       -1.7359   -6.2369    0.9219 H       3  LEU33       0.0232
     77 HD13       -1.5444   -7.0650   -0.6291 H       3  LEU33       0.0232
     78 HD21       -1.7983   -4.4791   -2.4784 H       3  LEU33       0.0232
     79 HD22       -0.7079   -5.8691   -2.6211 H       3  LEU33       0.0232
     80 HD23       -0.0402   -4.2445   -2.5116 H       3  LEU33       0.0232
     81 HD1        -4.0929    0.2716   -2.6674 H       4  TRP44       0.0810
     82 HE3        -4.0327    0.9465    2.4865 H       4  TRP44       0.0624
     83 HZ2        -7.3761   -2.0421    0.2875 H       4  TRP44       0.0638
     84 HZ3        -5.7095   -0.2663    3.8393 H       4  TRP44       0.0618
     85 HH2        -7.3659   -1.7480    2.7590 H       4  TRP44       0.0618
@<TRIPOS>BOND
     1     1    18    2
     2     2    19    2
     3     3    24    2
     4     4    29    2
     5     5    31    2
     6     6    35   ar
     7     7    35   ar
     8     8    14    1
     9     8    17    1
    10     8    19   am
    11     9    18   am
    12     9    20    1
    13    10    21    1
    14    10    29   am
    15    11    23    1
    16    11    24   am
    17    12    26    1
    18    12    31   am
    19    13    39   ar
    20    13    40   ar
    21    14    15    1
    22    14    18    1
    23    15    16    1
    24    16    17    1
    25    19    21    1
    26    20    22    1
    27    20    24    1
    28    21    25    1
    29    22    32    1
    30    22    33    1
    31    23    27    1
    32    23    31    1
    33    25    35    1
    34    26    29    1
    35    26    30    1
    36    27    28    1
    37    28    36    1
    38    28    37    1
    39    30    34    1
    40    34    38   ar
    41    34    39   ar
    42    38    40   ar
    43    38    41   ar
    44    40    42   ar
    45    41    43   ar
    46    42    44   ar
    47    43    44   ar
    48     9    45    1
    49    10    46    1
    50    11    47    1
    51    12    48    1
    52    13    49    1
    53    14    50    1
    54    15    51    1
    55    15    52    1
    56    16    53    1
    57    16    54    1
    58    17    55    1
    59    17    56    1
    60    20    57    1
    61    21    58    1
    62    22    59    1
    63    23    60    1
    64    25    61    1
    65    25    62    1
    66    26    63    1
    67    27    64    1
    68    27    65    1
    69    28    66    1
    70    30    67    1
    71    30    68    1
    72    32    69    1
    73    32    70    1
    74    32    71    1
    75    33    72    1
    76    33    73    1
    77    33    74    1
    78    36    75    1
    79    36    76    1
    80    36    77    1
    81    37    78    1
    82    37    79    1
    83    37    80    1
    84    39    81    1
    85    41    82    1
    86    42    83    1
    87    43    84    1
    88    44    85    1
