@<TRIPOS>MOLECULE
9871593
 62 65 0 0 0
SMALL
GASTEIGER

@<TRIPOS>ATOM
      1 O           4.1135    2.2759    2.8578 O.3     1  LIG11      -0.4526
      2 O           5.6717    1.5213    1.1753 O.3     1  LIG11      -0.4526
      3 O          -1.6237   -4.5946   -0.7736 O.3     1  LIG11      -0.4913
      4 O           3.0889   -3.6078   -0.3224 O.3     1  LIG11      -0.4913
      5 O           1.1008   -5.3762   -1.0480 O.3     1  LIG11      -0.4885
      6 O          -1.6986    0.9007   -2.1448 O.2     1  LIG11      -0.2870
      7 O           0.6399    3.6939   -1.8877 O.co2   1  LIG11      -0.5446
      8 O          -1.1891    3.7595   -0.5064 O.co2   1  LIG11      -0.5446
      9 O          -6.8333   -0.5226    1.2076 O.3     1  LIG11      -0.4951
     10 C          -0.3325   -0.2180    0.8828 C.3     1  LIG11       0.0021
     11 C          -0.5616    0.9264   -0.0658 C.2     1  LIG11       0.0135
     12 C           0.0509   -1.5497    0.2855 C.ar    1  LIG11      -0.0358
     13 C           0.3019    1.9442   -0.2848 C.2     1  LIG11       0.0117
     14 C           1.7190    1.9031    0.0993 C.ar    1  LIG11      -0.0121
     15 C          -1.7983    0.9005   -0.9161 C.2     1  LIG11       0.1901
     16 C           1.4039   -1.9046    0.1759 C.ar    1  LIG11      -0.0126
     17 C          -0.9276   -2.4837   -0.0695 C.ar    1  LIG11      -0.0126
     18 C           2.1624    2.2098    1.3905 C.ar    1  LIG11      -0.0084
     19 C           3.5087    2.0533    1.6578 C.ar    1  LIG11       0.1668
     20 C           2.6479    1.4731   -0.8801 C.ar    1  LIG11      -0.0503
     21 C           4.4013    1.6234    0.6994 C.ar    1  LIG11       0.1663
     22 C          -0.5670   -3.7671   -0.4853 C.ar    1  LIG11       0.1654
     23 C           1.7861   -3.1790   -0.2577 C.ar    1  LIG11       0.1654
     24 C          -3.1317    0.6393   -0.3111 C.ar    1  LIG11       0.0222
     25 C           0.7891   -4.1069   -0.6190 C.ar    1  LIG11       0.2035
     26 C           4.0047    1.3333   -0.5848 C.ar    1  LIG11      -0.0156
     27 C          -0.1358    3.2471   -0.9983 C.2     1  LIG11       0.0726
     28 C           5.4848    1.9777    2.5290 C.3     1  LIG11       0.2332
     29 C          -3.4493    0.9557    1.0132 C.ar    1  LIG11      -0.0475
     30 C          -4.0977    0.0185   -1.1188 C.ar    1  LIG11      -0.0475
     31 C          -4.6859    0.5703    1.5482 C.ar    1  LIG11      -0.0193
     32 C          -5.3363   -0.3454   -0.5918 C.ar    1  LIG11      -0.0193
     33 C          -5.6110   -0.1086    0.7514 C.ar    1  LIG11       0.1201
     34 C          -1.5162   -5.8914   -0.1934 C.3     1  LIG11       0.0790
     35 C           4.0945   -2.7095    0.1302 C.3     1  LIG11       0.0790
     36 C           1.8914   -5.3695   -2.2352 C.3     1  LIG11       0.0791
     37 C          -6.7295   -1.3289    2.3787 C.3     1  LIG11       0.0788
     38 H          -1.2174   -0.3755    1.5098 H       1  LIG11       0.0363
     39 H           0.4277    0.0488    1.6281 H       1  LIG11       0.0363
     40 H           2.1432   -1.1640    0.4645 H       1  LIG11       0.0658
     41 H          -1.9823   -2.2327    0.0139 H       1  LIG11       0.0658
     42 H           1.4735    2.5536    2.1528 H       1  LIG11       0.0661
     43 H           2.2911    1.2667   -1.8899 H       1  LIG11       0.0625
     44 H           4.7093    1.0148   -1.3424 H       1  LIG11       0.0655
     45 H           5.8448    1.1976    3.2096 H       1  LIG11       0.1166
     46 H           6.0892    2.8796    2.6809 H       1  LIG11       0.1166
     47 H          -2.7453    1.5093    1.6300 H       1  LIG11       0.0626
     48 H          -3.8769   -0.1925   -2.1639 H       1  LIG11       0.0626
     49 H          -4.9193    0.8232    2.5773 H       1  LIG11       0.0654
     50 H          -6.0722   -0.8304   -1.2261 H       1  LIG11       0.0654
     51 H          -2.5301   -6.2402    0.0268 H       1  LIG11       0.0660
     52 H          -0.9561   -5.8935    0.7489 H       1  LIG11       0.0660
     53 H          -1.0772   -6.5900   -0.9113 H       1  LIG11       0.0660
     54 H           5.0573   -3.2244    0.0577 H       1  LIG11       0.0660
     55 H           3.9441   -2.4401    1.1812 H       1  LIG11       0.0660
     56 H           4.1446   -1.8215   -0.5072 H       1  LIG11       0.0660
     57 H           1.5873   -6.2293   -2.8400 H       1  LIG11       0.0660
     58 H           2.9469   -5.5031   -1.9799 H       1  LIG11       0.0660
     59 H           1.7538   -4.4672   -2.8422 H       1  LIG11       0.0660
     60 H          -7.6644   -1.8889    2.4812 H       1  LIG11       0.0660
     61 H          -6.6117   -0.7040    3.2690 H       1  LIG11       0.0660
     62 H          -5.9125   -2.0564    2.3046 H       1  LIG11       0.0660
@<TRIPOS>BOND
     1     1    19    1
     2     1    28    1
     3     2    28    1
     4     2    21    1
     5     3    22    1
     6     3    34    1
     7     4    23    1
     8     4    35    1
     9     5    25    1
    10     5    36    1
    11     6    15    2
    12     7    27   ar
    13     8    27   ar
    14     9    33    1
    15     9    37    1
    16    10    11    1
    17    10    12    1
    18    11    13    2
    19    11    15    1
    20    12    16   ar
    21    12    17   ar
    22    13    14    1
    23    13    27    1
    24    14    20   ar
    25    14    18   ar
    26    15    24    1
    27    16    23   ar
    28    17    22   ar
    29    18    19   ar
    30    19    21   ar
    31    20    26   ar
    32    21    26   ar
    33    22    25   ar
    34    23    25   ar
    35    24    29   ar
    36    24    30   ar
    37    29    31   ar
    38    30    32   ar
    39    31    33   ar
    40    32    33   ar
    41    10    38    1
    42    10    39    1
    43    16    40    1
    44    17    41    1
    45    18    42    1
    46    20    43    1
    47    26    44    1
    48    28    45    1
    49    28    46    1
    50    29    47    1
    51    30    48    1
    52    31    49    1
    53    32    50    1
    54    34    51    1
    55    34    52    1
    56    34    53    1
    57    35    54    1
    58    35    55    1
    59    35    56    1
    60    36    57    1
    61    36    58    1
    62    36    59    1
    63    37    60    1
    64    37    61    1
    65    37    62    1
@<TRIPOS>MOLECULE
16219006
 85 88 0 0 0
SMALL
GASTEIGER

@<TRIPOS>ATOM
      1 O           4.5078   -1.0447    2.2428 O.2     1  PRO11      -0.2738
      2 O           3.4143    1.1728   -1.4276 O.2     5  ASP55      -0.2735
      3 O           2.1319   -2.2287   -1.8897 O.2     2  VAL22      -0.2738
      4 O          -0.3367    2.8402    1.3427 O.2     4  TRP44      -0.2738
      5 O          -0.1034   -1.0821    1.7400 O.2     3  LEU33      -0.2738
      6 OD1        -0.6514    3.6383   -2.6695 O.co2   5  ASP55      -0.5497
      7 OD2         0.7080    5.3681   -2.0318 O.co2   5  ASP55      -0.5497
      8 N           3.4723    1.8232    0.7352 N.am    1  PRO11      -0.2884
      9 N           4.1223   -1.0819   -0.0093 N.am    2  VAL22      -0.3022
     10 N           0.5502    1.7781   -0.4940 N.am    5  ASP55      -0.3021
     11 N           1.3252   -2.7992    0.1788 N.am    3  LEU33      -0.3025
     12 N          -1.1445   -0.3304   -0.1580 N.am    4  TRP44      -0.3022
     13 NE1        -5.4878   -0.6040   -1.3519 N.ar    4  TRP44      -0.3604
     14 CA          4.6986    1.0737    1.0167 C.3     1  PRO11       0.1023
     15 CB          5.2308    1.7101    2.3018 C.3     1  PRO11      -0.0243
     16 CG          3.9658    2.1721    3.0148 C.3     1  PRO11      -0.0350
     17 CD          3.0750    2.6376    1.8728 C.3     1  PRO11       0.0156
     18 C           4.4199   -0.4427    1.1745 C.2     1  PRO11       0.2342
     19 C           2.9346    1.8847   -0.5345 C.2     5  ASP55       0.2369
     20 CA          3.7460   -2.4899   -0.0827 C.3     2  VAL22       0.1017
     21 CA          1.6448    2.7109   -0.7506 C.3     5  ASP55       0.1047
     22 CB          4.7582   -3.2988   -0.9235 C.3     2  VAL22      -0.0197
     23 CA         -0.0641   -2.5445   -0.1843 C.3     3  LEU33       0.0996
     24 C           2.3396   -2.5058   -0.7104 C.2     2  VAL22       0.2342
     25 CB          1.6048    3.2061   -2.1893 C.3     5  ASP55       0.0138
     26 CA         -1.5539    0.9429    0.4533 C.3     4  TRP44       0.1034
     27 CB         -1.0103   -3.6622    0.2758 C.3     3  LEU33      -0.0236
     28 CG         -0.9439   -4.9528   -0.5679 C.3     3  LEU33      -0.0446
     29 C          -0.3744    1.9336    0.5127 C.2     4  TRP44       0.2343
     30 CB         -2.7190    1.5959   -0.3052 C.3     4  TRP44       0.0013
     31 C          -0.4294   -1.2522    0.5646 C.2     3  LEU33       0.2340
     32 CG1         4.2925   -4.7452   -1.1296 C.3     2  VAL22      -0.0605
     33 CG2         6.1372   -3.3144   -0.2524 C.3     2  VAL22      -0.0605
     34 CG         -3.9128    0.6892   -0.4468 C.ar    4  TRP44      -0.0201
     35 CG          0.4366    4.1648   -2.2977 C.2     5  ASP55       0.0440
     36 CD1         0.3587   -5.7295   -0.3739 C.3     3  LEU33      -0.0626
     37 CD2        -2.1256   -5.8605   -0.2122 C.3     3  LEU33      -0.0626
     38 CD2        -4.7401    0.1669    0.6004 C.ar    4  TRP44       0.0029
     39 CD1        -4.4144    0.1935   -1.6354 C.ar    4  TRP44       0.0060
     40 CE2        -5.7019   -0.6514    0.0055 C.ar    4  TRP44       0.0467
     41 CE3        -4.7563    0.3063    2.0037 C.ar    4  TRP44      -0.0523
     42 CZ2        -6.6692   -1.3457    0.7429 C.ar    4  TRP44      -0.0378
     43 CZ3        -5.7146   -0.3821    2.7566 C.ar    4  TRP44      -0.0611
     44 CH2        -6.6548   -1.1979    2.1329 C.ar    4  TRP44      -0.0598
     45 H           3.9029   -0.4854   -0.8154 H       2  VAL22       0.1495
     46 H           0.3839    1.0714   -1.1970 H       5  ASP55       0.1495
     47 H           1.5367   -2.6521    1.1639 H       3  LEU33       0.1495
     48 H          -1.3200   -0.4629   -1.1465 H       4  TRP44       0.1495
     49 HE1        -6.0485   -1.0878   -2.0383 H       4  TRP44       0.1653
     50 HA          5.4185    1.1998    0.1990 H       1  PRO11       0.0597
     51 HB1         5.8439    2.5851    2.0517 H       1  PRO11       0.0288
     52 HB2         5.8374    1.0393    2.9167 H       1  PRO11       0.0288
     53 HG1         4.1548    2.9615    3.7476 H       1  PRO11       0.0281
     54 HG2         3.4997    1.3274    3.5354 H       1  PRO11       0.0281
     55 HD1         2.0185    2.5027    2.1030 H       1  PRO11       0.0465
     56 HD2         3.2646    3.6874    1.6241 H       1  PRO11       0.0465
     57 HA          3.6947   -2.9132    0.9275 H       2  VAL22       0.0597
     58 HA          1.6034    3.5503   -0.0510 H       5  ASP55       0.0598
     59 HB          4.8688   -2.8349   -1.9125 H       2  VAL22       0.0318
     60 HA         -0.1614   -2.3837   -1.2630 H       3  LEU33       0.0594
     61 HB1         1.4889    2.3858   -2.9081 H       5  ASP55       0.0348
     62 HB2         2.5330    3.7319   -2.4454 H       5  ASP55       0.0348
     63 HA         -1.8367    0.7300    1.4910 H       4  TRP44       0.0598
     64 HB1        -2.0378   -3.2756    0.2286 H       3  LEU33       0.0290
     65 HB2        -0.8267   -3.9018    1.3321 H       3  LEU33       0.0290
     66 HG         -1.0343   -4.6888   -1.6291 H       3  LEU33       0.0296
     67 HB1        -2.3847    1.9006   -1.3054 H       4  TRP44       0.0337
     68 HB2        -3.0289    2.5161    0.2061 H       4  TRP44       0.0337
     69 HG11        4.0748   -5.2334   -0.1734 H       2  VAL22       0.0233
     70 HG12        5.0598   -5.3346   -1.6431 H       2  VAL22       0.0233
     71 HG13        3.3906   -4.7866   -1.7477 H       2  VAL22       0.0233
     72 HG21        6.0836   -3.7517    0.7507 H       2  VAL22       0.0233
     73 HG22        6.5486   -2.3044   -0.1620 H       2  VAL22       0.0233
     74 HG23        6.8485   -3.9059   -0.8392 H       2  VAL22       0.0233
     75 HD11        0.5697   -5.8978    0.6875 H       3  LEU33       0.0232
     76 HD12        1.2052   -5.1997   -0.8140 H       3  LEU33       0.0232
     77 HD13        0.3097   -6.7068   -0.8664 H       3  LEU33       0.0232
     78 HD21       -2.0948   -6.1576    0.8417 H       3  LEU33       0.0232
     79 HD22       -2.1153   -6.7706   -0.8217 H       3  LEU33       0.0232
     80 HD23       -3.0776   -5.3512   -0.3951 H       3  LEU33       0.0232
     81 HD1        -4.0963    0.3540   -2.6579 H       4  TRP44       0.0810
     82 HE3        -4.0307    0.9423    2.5027 H       4  TRP44       0.0624
     83 HZ2        -7.4060   -1.9769    0.2584 H       4  TRP44       0.0638
     84 HZ3        -5.7197   -0.2752    3.8382 H       4  TRP44       0.0618
     85 HH2        -7.3906   -1.7248    2.7351 H       4  TRP44       0.0618
@<TRIPOS>BOND
     1     1    18    2
     2     2    19    2
     3     3    24    2
     4     4    29    2
     5     5    31    2
     6     6    35   ar
     7     7    35   ar
     8     8    14    1
     9     8    17    1
    10     8    19   am
    11     9    18   am
    12     9    20    1
    13    10    21    1
    14    10    29   am
    15    11    23    1
    16    11    24   am
    17    12    26    1
    18    12    31   am
    19    13    39   ar
    20    13    40   ar
    21    14    15    1
    22    14    18    1
    23    15    16    1
    24    16    17    1
    25    19    21    1
    26    20    22    1
    27    20    24    1
    28    21    25    1
    29    22    32    1
    30    22    33    1
    31    23    27    1
    32    23    31    1
    33    25    35    1
    34    26    29    1
    35    26    30    1
    36    27    28    1
    37    28    36    1
    38    28    37    1
    39    30    34    1
    40    34    38   ar
    41    34    39   ar
    42    38    40   ar
    43    38    41   ar
    44    40    42   ar
    45    41    43   ar
    46    42    44   ar
    47    43    44   ar
    48     9    45    1
    49    10    46    1
    50    11    47    1
    51    12    48    1
    52    13    49    1
    53    14    50    1
    54    15    51    1
    55    15    52    1
    56    16    53    1
    57    16    54    1
    58    17    55    1
    59    17    56    1
    60    20    57    1
    61    21    58    1
    62    22    59    1
    63    23    60    1
    64    25    61    1
    65    25    62    1
    66    26    63    1
    67    27    64    1
    68    27    65    1
    69    28    66    1
    70    30    67    1
    71    30    68    1
    72    32    69    1
    73    32    70    1
    74    32    71    1
    75    33    72    1
    76    33    73    1
    77    33    74    1
    78    36    75    1
    79    36    76    1
    80    36    77    1
    81    37    78    1
    82    37    79    1
    83    37    80    1
    84    39    81    1
    85    41    82    1
    86    42    83    1
    87    43    84    1
    88    44    85    1
