@<TRIPOS>MOLECULE
16004692
 52 54 0 0 0
SMALL
GASTEIGER

@<TRIPOS>ATOM
      1 BR          2.7645    4.9363   -1.5755 Br      1  LIG11      -0.0503
      2 BR          3.5075    3.3136    1.7106 Br      1  LIG11      -0.0472
      3 S          -3.2140    1.2090   -0.9436 S.O2    1  LIG11       0.1104
      4 O           2.3124   -2.0346   -0.9772 O.3     1  LIG11      -0.4724
      5 O          -2.3108   -0.2227   -2.0231 O.2     1  LIG11      -0.1381
      6 O          -2.7203    2.0388   -0.9631 O.2     1  LIG11      -0.1381
      7 O           5.3773   -2.7430    0.2888 O.3     1  LIG11      -0.4590
      8 N          -4.2554    0.9303   -0.5110 N.3     1  LIG11      -0.1771
      9 N          -2.1121    0.5694    0.4907 N.pl3   1  LIG11      -0.1889
     10 N          -1.7586   -1.8887    0.8519 N.ar    1  LIG11      -0.2186
     11 N           0.3431   -3.2767    0.0723 N.ar    1  LIG11      -0.2008
     12 N           5.1281   -0.8971    1.4867 N.ar    1  LIG11      -0.2022
     13 N           4.5591   -0.6372   -1.2389 N.ar    1  LIG11      -0.2022
     14 C          -4.9255    0.2359   -1.5758 C.3     1  LIG11       0.0185
     15 C           0.0813   -0.7816   -0.2110 C.ar    1  LIG11       0.0848
     16 C          -0.9773   -0.7107   -0.0090 C.ar    1  LIG11       0.1532
     17 C          -6.1262    0.0543   -1.0139 C.3     1  LIG11      -0.0416
     18 C           0.9890    0.7407    0.0427 C.ar    1  LIG11      -0.0094
     19 C           0.6642   -1.6930    0.0223 C.ar    1  LIG11       0.2276
     20 C          -7.2091    1.5711   -0.4342 C.3     1  LIG11      -0.0641
     21 C           0.2679    1.9021   -0.2291 C.ar    1  LIG11      -0.0527
     22 C           1.7706    0.9281    0.0067 C.ar    1  LIG11      -0.0527
     23 C           2.6645   -3.2487   -0.2423 C.3     1  LIG11       0.1252
     24 C           0.8151    2.7923   -1.5042 C.ar    1  LIG11      -0.0472
     25 C           2.7543    2.0612   -0.1974 C.ar    1  LIG11      -0.0472
     26 C          -0.9906   -2.8096    0.8328 C.ar    1  LIG11       0.1219
     27 C           4.3635   -3.0113   -0.8702 C.3     1  LIG11       0.1267
     28 C           2.2807    3.0455   -0.9265 C.ar    1  LIG11       0.0179
     29 C           4.5676   -0.8813    0.3166 C.ar    1  LIG11       0.3180
     30 C           4.2084    0.9585    2.2442 C.ar    1  LIG11       0.0483
     31 C           3.5089    0.9331   -0.4545 C.ar    1  LIG11       0.0483
     32 C           4.0680    1.0007    0.9611 C.ar    1  LIG11       0.0543
     33 H          -4.1838   -0.1184    0.6888 H       1  LIG11       0.1493
     34 H          -2.1883    0.8949    1.4012 H       1  LIG11       0.1763
     35 H          -5.0864    1.2222   -2.2381 H       1  LIG11       0.0442
     36 H          -4.9853   -0.4278   -1.9243 H       1  LIG11       0.0442
     37 H          -7.1291   -0.0579   -1.7576 H       1  LIG11       0.0275
     38 H          -6.4766   -0.5545   -0.2384 H       1  LIG11       0.0275
     39 H          -7.1017    2.1813   -1.1630 H       1  LIG11       0.0230
     40 H          -8.1313    1.3474   -0.2032 H       1  LIG11       0.0230
     41 H          -6.7494    1.7169    0.4159 H       1  LIG11       0.0230
     42 H          -0.3465    1.8949   -1.0635 H       1  LIG11       0.0624
     43 H           2.5052   -0.3510    0.9405 H       1  LIG11       0.0624
     44 H           2.7925   -3.5508    0.4409 H       1  LIG11       0.0731
     45 H           2.5665   -3.7687   -1.2051 H       1  LIG11       0.0731
     46 H           0.3724    3.6692   -1.5794 H       1  LIG11       0.0629
     47 H           4.1285    2.4059   -0.6350 H       1  LIG11       0.0629
     48 H          -1.2842   -3.8224    0.8190 H       1  LIG11       0.1049
     49 H           4.3960   -2.4941   -1.8210 H       1  LIG11       0.0732
     50 H           4.8466   -3.7659   -0.7967 H       1  LIG11       0.0732
     51 H           4.5774    1.0493    3.1050 H       1  LIG11       0.0843
     52 H           3.3554    0.7408   -1.6173 H       1  LIG11       0.0843
@<TRIPOS>BOND
     1     1    28    1
     2     2    32    1
     3     3     5    2
     4     3     6    2
     5     3     8    1
     6     3     9    1
     7     4    19    1
     8     4    23    1
     9     7    27    1
    10     7    29    1
    11     8    14    1
    12     9    16    1
    13    10    16   ar
    14    10    26   ar
    15    11    19   ar
    16    11    26   ar
    17    12    29   ar
    18    12    30   ar
    19    13    29   ar
    20    13    31   ar
    21    14    17    1
    22    15    16   ar
    23    15    18    1
    24    15    19   ar
    25    17    20    1
    26    18    21   ar
    27    18    22   ar
    28    21    24   ar
    29    22    25   ar
    30    23    27    1
    31    24    28   ar
    32    25    28   ar
    33    30    32   ar
    34    31    32   ar
    35     8    33    1
    36     9    34    1
    37    14    35    1
    38    14    36    1
    39    17    37    1
    40    17    38    1
    41    20    39    1
    42    20    40    1
    43    20    41    1
    44    21    42    1
    45    22    43    1
    46    23    44    1
    47    23    45    1
    48    24    46    1
    49    25    47    1
    50    26    48    1
    51    27    49    1
    52    27    50    1
    53    30    51    1
    54    31    52    1
@<TRIPOS>MOLECULE
16219006
 85 88 0 0 0
SMALL
GASTEIGER

@<TRIPOS>ATOM
      1 O           4.1595   -1.0570    2.2536 O.2     1  PRO11      -0.2738
      2 O           3.0771    0.9638   -1.3327 O.2     5  ASP55      -0.2735
      3 O           2.1429   -2.3169   -1.9198 O.2     2  VAL22      -0.2738
      4 O          -0.5282    2.9852    1.2259 O.2     4  TRP44      -0.2738
      5 O          -0.2891   -1.1205    1.7371 O.2     3  LEU33      -0.2738
      6 OD1         2.9204    5.0081   -3.2737 O.co2   5  ASP55      -0.5497
      7 OD2         3.5746    4.5180   -1.1454 O.co2   5  ASP55      -0.5497
      8 N           3.3879    1.7587    0.7665 N.am    1  PRO11      -0.2884
      9 N           4.1635   -1.2019   -0.0309 N.am    2  VAL22      -0.3022
     10 N           0.4065    1.9470   -0.5975 N.am    5  ASP55      -0.3021
     11 N           1.2829   -2.7598    0.1537 N.am    3  LEU33      -0.3025
     12 N          -1.1502   -0.2666   -0.2073 N.am    4  TRP44      -0.3022
     13 NE1        -5.4977   -1.0048   -0.0480 N.ar    4  TRP44      -0.3604
     14 CA          4.6127    0.9882    0.9728 C.3     1  PRO11       0.1023
     15 CB          5.2494    1.6111    2.2188 C.3     1  PRO11      -0.0243
     16 CG          4.0659    2.2126    2.9665 C.3     1  PRO11      -0.0350
     17 CD          3.1768    2.7130    1.8403 C.3     1  PRO11       0.0156
     18 C           4.2983   -0.5142    1.1594 C.2     1  PRO11       0.2342
     19 C           2.7943    1.8165   -0.4790 C.2     5  ASP55       0.2369
     20 CA          3.7196   -2.5905   -0.0830 C.3     2  VAL22       0.1017
     21 CA          1.6088    2.7945   -0.6893 C.3     5  ASP55       0.1047
     22 CB          4.6819   -3.4693   -0.9105 C.3     2  VAL22      -0.0197
     23 CA         -0.0846   -2.4774   -0.2564 C.3     3  LEU33       0.0996
     24 C           2.3231   -2.5545   -0.7269 C.2     2  VAL22       0.2342
     25 CB          1.6685    3.4387   -2.0636 C.3     5  ASP55       0.0138
     26 CA         -1.6148    0.9785    0.4183 C.3     4  TRP44       0.1034
     27 CB         -1.0346   -3.6323    0.0800 C.3     3  LEU33      -0.0236
     28 CG         -0.7159   -4.9555   -0.6466 C.3     3  LEU33      -0.0446
     29 C          -0.4976    2.0420    0.4375 C.2     4  TRP44       0.2343
     30 CB         -2.8327    1.5582   -0.3147 C.3     4  TRP44       0.0013
     31 C          -0.5025   -1.2274    0.5306 C.2     3  LEU33       0.2340
     32 CG1         4.1607   -4.9090   -1.0151 C.3     2  VAL22      -0.0605
     33 CG2         6.0820   -3.4911   -0.2886 C.3     2  VAL22      -0.0605
     34 CG         -4.0429    0.6593   -0.3740 C.ar    4  TRP44      -0.0201
     35 CG          2.8387    4.4092   -2.1638 C.2     5  ASP55       0.0440
     36 CD1        -1.6872   -6.0453   -0.1845 C.3     3  LEU33      -0.0626
     37 CD2        -0.7823   -4.8211   -2.1686 C.3     3  LEU33      -0.0626
     38 CD2        -5.2002    0.8799   -1.1927 C.ar    4  TRP44       0.0029
     39 CD1        -4.2821   -0.5058    0.3320 C.ar    4  TRP44       0.0060
     40 CE2        -6.0840   -0.1771   -0.9723 C.ar    4  TRP44       0.0467
     41 CE3        -5.5767    1.8899   -2.1024 C.ar    4  TRP44      -0.0523
     42 CZ2        -7.3203   -0.2808   -1.6211 C.ar    4  TRP44      -0.0378
     43 CZ3        -6.8129    1.8063   -2.7542 C.ar    4  TRP44      -0.0611
     44 CH2        -7.6694    0.7343   -2.5169 C.ar    4  TRP44      -0.0598
     45 H           3.9596   -0.6149   -0.8491 H       2  VAL22       0.1495
     46 H           0.4713    1.0670   -1.0930 H       5  ASP55       0.1495
     47 H           1.4843   -2.6125    1.1415 H       3  LEU33       0.1495
     48 H          -1.2339   -0.3620   -1.2124 H       4  TRP44       0.1495
     49 HE1        -5.9143   -1.8537    0.3082 H       4  TRP44       0.1653
     50 HA          5.2815    1.1002    0.1100 H       1  PRO11       0.0597
     51 HB1         5.9307    2.4168    1.9176 H       1  PRO11       0.0288
     52 HB2         5.8165    0.9040    2.8312 H       1  PRO11       0.0288
     53 HG1         4.3578    3.0085    3.6574 H       1  PRO11       0.0281
     54 HG2         3.5490    1.4331    3.5390 H       1  PRO11       0.0281
     55 HD1         2.1241    2.7498    2.1298 H       1  PRO11       0.0465
     56 HD2         3.4958    3.7026    1.4973 H       1  PRO11       0.0465
     57 HA          3.6420   -2.9962    0.9321 H       2  VAL22       0.0597
     58 HA          1.5684    3.5613    0.0872 H       5  ASP55       0.0598
     59 HB          4.7696   -3.0645   -1.9276 H       2  VAL22       0.0318
     60 HA         -0.1287   -2.2490   -1.3256 H       3  LEU33       0.0594
     61 HB1         0.7423    3.9946   -2.2579 H       5  ASP55       0.0348
     62 HB2         1.7678    2.6865   -2.8560 H       5  ASP55       0.0348
     63 HA         -1.8648    0.7640    1.4650 H       4  TRP44       0.0598
     64 HB1        -2.0637   -3.3272   -0.1543 H       3  LEU33       0.0290
     65 HB2        -1.0138   -3.8135    1.1636 H       3  LEU33       0.0290
     66 HG          0.2968   -5.2777   -0.3751 H       3  LEU33       0.0296
     67 HB1        -2.5455    1.8138   -1.3442 H       4  TRP44       0.0337
     68 HB2        -3.1325    2.4996    0.1647 H       4  TRP44       0.0337
     69 HG11        4.0174   -5.3514   -0.0225 H       2  VAL22       0.0233
     70 HG12        4.8665   -5.5398   -1.5670 H       2  VAL22       0.0233
     71 HG13        3.2043   -4.9528   -1.5456 H       2  VAL22       0.0233
     72 HG21        6.0523   -3.8645    0.7414 H       2  VAL22       0.0233
     73 HG22        6.5280   -2.4911   -0.2751 H       2  VAL22       0.0233
     74 HG23        6.7522   -4.1404   -0.8628 H       2  VAL22       0.0233
     75 HD11       -2.7218   -5.7897   -0.4392 H       3  LEU33       0.0232
     76 HD12       -1.6287   -6.1850    0.9000 H       3  LEU33       0.0232
     77 HD13       -1.4494   -7.0042   -0.6570 H       3  LEU33       0.0232
     78 HD21       -1.7514   -4.4249   -2.4907 H       3  LEU33       0.0232
     79 HD22       -0.6377   -5.7940   -2.6514 H       3  LEU33       0.0232
     80 HD23        0.0006   -4.1572   -2.5460 H       3  LEU33       0.0232
     81 HD1        -3.6867   -1.0285    1.0701 H       4  TRP44       0.0810
     82 HE3        -4.9168    2.7314   -2.2943 H       4  TRP44       0.0624
     83 HZ2        -7.9905   -1.1136   -1.4362 H       4  TRP44       0.0638
     84 HZ3        -7.1029    2.5883   -3.4506 H       4  TRP44       0.0618
     85 HH2        -8.6248    0.6868   -3.0335 H       4  TRP44       0.0618
@<TRIPOS>BOND
     1     1    18    2
     2     2    19    2
     3     3    24    2
     4     4    29    2
     5     5    31    2
     6     6    35   ar
     7     7    35   ar
     8     8    14    1
     9     8    17    1
    10     8    19   am
    11     9    18   am
    12     9    20    1
    13    10    21    1
    14    10    29   am
    15    11    23    1
    16    11    24   am
    17    12    26    1
    18    12    31   am
    19    13    39   ar
    20    13    40   ar
    21    14    15    1
    22    14    18    1
    23    15    16    1
    24    16    17    1
    25    19    21    1
    26    20    22    1
    27    20    24    1
    28    21    25    1
    29    22    32    1
    30    22    33    1
    31    23    27    1
    32    23    31    1
    33    25    35    1
    34    26    29    1
    35    26    30    1
    36    27    28    1
    37    28    36    1
    38    28    37    1
    39    30    34    1
    40    34    38   ar
    41    34    39   ar
    42    38    40   ar
    43    38    41   ar
    44    40    42   ar
    45    41    43   ar
    46    42    44   ar
    47    43    44   ar
    48     9    45    1
    49    10    46    1
    50    11    47    1
    51    12    48    1
    52    13    49    1
    53    14    50    1
    54    15    51    1
    55    15    52    1
    56    16    53    1
    57    16    54    1
    58    17    55    1
    59    17    56    1
    60    20    57    1
    61    21    58    1
    62    22    59    1
    63    23    60    1
    64    25    61    1
    65    25    62    1
    66    26    63    1
    67    27    64    1
    68    27    65    1
    69    28    66    1
    70    30    67    1
    71    30    68    1
    72    32    69    1
    73    32    70    1
    74    32    71    1
    75    33    72    1
    76    33    73    1
    77    33    74    1
    78    36    75    1
    79    36    76    1
    80    36    77    1
    81    37    78    1
    82    37    79    1
    83    37    80    1
    84    39    81    1
    85    41    82    1
    86    42    83    1
    87    43    84    1
    88    44    85    1
