@<TRIPOS>MOLECULE
*****
 48 50 0 0 0
SMALL
GASTEIGER

@<TRIPOS>ATOM
      1 C          -1.1490   -1.2479    1.6071 C.ar    1  LIG11      -0.0615
      2 C          -0.6662   -2.3841    0.9640 C.ar    1  LIG11      -0.0617
      3 C          -0.2209   -2.2948   -0.3504 C.ar    1  LIG11      -0.0615
      4 C          -0.2677   -1.0709   -1.0216 C.ar    1  LIG11      -0.0576
      5 C          -0.7651    0.0931   -0.3977 C.ar    1  LIG11      -0.0332
      6 C          -1.1932   -0.0211    0.9363 C.ar    1  LIG11      -0.0576
      7 C          -0.7904    1.3687   -3.7954 C.ar    1  LIG11      -0.0576
      8 C          -1.4409    1.1113   -5.0083 C.ar    1  LIG11      -0.0615
      9 C          -2.7615    0.6740   -5.0227 C.ar    1  LIG11      -0.0617
     10 C          -3.4354    0.4899   -3.8216 C.ar    1  LIG11      -0.0615
     11 C          -2.7872    0.7518   -2.6114 C.ar    1  LIG11      -0.0576
     12 N           3.1671    2.0418    1.3456 N.ar    1  LIG11      -0.2002
     13 C           2.4295    1.4730    0.3783 C.ar    1  LIG11       0.3190
     14 N           2.6950    0.2859   -0.1909 N.ar    1  LIG11      -0.2002
     15 C           3.8221   -0.3355    0.1912 C.ar    1  LIG11       0.0453
     16 C           4.6689    0.1929    1.1442 C.ar    1  LIG11      -0.0193
     17 C           4.2951    1.4001    1.7021 C.ar    1  LIG11       0.0453
     18 C           5.1371    2.0630    2.7475 C.3     1  LIG11      -0.0221
     19 C           4.1136   -1.6609   -0.4405 C.3     1  LIG11      -0.0221
     20 O           1.2202    2.0796    0.1388 O.3     1  LIG11      -0.4519
     21 C           0.7350    1.9333   -1.2271 C.3     1  LIG11       0.1554
     22 C          -0.7675    1.4583   -1.1830 C.3     1  LIG11       0.0601
     23 C           1.0443    3.2801   -1.9419 C.2     1  LIG11       0.0833
     24 O           0.3829    4.2947   -1.5836 O.co2   1  LIG11      -0.5460
     25 O           1.9512    3.2133   -2.8295 O.co2   1  LIG11      -0.5460
     26 C          -1.4496    1.2070   -2.5675 C.ar    1  LIG11      -0.0332
     27 C          -1.6383    2.5245   -0.4533 C.3     1  LIG11      -0.0477
     28 H          -1.4770   -1.3052    2.6408 H       1  LIG11       0.0618
     29 H          -0.6205   -3.3314    1.4913 H       1  LIG11       0.0618
     30 H           0.1791   -3.1681   -0.8560 H       1  LIG11       0.0618
     31 H           0.1128   -1.0199   -2.0402 H       1  LIG11       0.0621
     32 H          -1.5409    0.8478    1.4872 H       1  LIG11       0.0621
     33 H           0.2436    1.6986   -3.8501 H       1  LIG11       0.0621
     34 H          -0.9023    1.2621   -5.9400 H       1  LIG11       0.0618
     35 H          -3.2601    0.4785   -5.9668 H       1  LIG11       0.0618
     36 H          -4.4637    0.1422   -3.8184 H       1  LIG11       0.0618
     37 H          -3.3336    0.5824   -1.6865 H       1  LIG11       0.0621
     38 H           5.5733   -0.3192    1.4426 H       1  LIG11       0.0653
     39 H           5.9898    1.4405    3.0366 H       1  LIG11       0.0293
     40 H           4.5381    2.2532    3.6436 H       1  LIG11       0.0293
     41 H           5.5204    3.0150    2.3675 H       1  LIG11       0.0293
     42 H           3.3827   -1.8899   -1.2231 H       1  LIG11       0.0293
     43 H           4.0658   -2.4542    0.3120 H       1  LIG11       0.0293
     44 H           5.1083   -1.6561   -0.8964 H       1  LIG11       0.0293
     45 H           1.3067    1.1726   -1.7761 H       1  LIG11       0.0810
     46 H          -1.1642    2.8885    0.4650 H       1  LIG11       0.0243
     47 H          -2.6234    2.1365   -0.1679 H       1  LIG11       0.0243
     48 H          -1.8343    3.3928   -1.0920 H       1  LIG11       0.0243
@<TRIPOS>BOND
     1     1     2   ar
     2     2     3   ar
     3     3     4   ar
     4     4     5   ar
     5     5     6   ar
     6     5    22    1
     7     6     1   ar
     8     7     8   ar
     9     8     9   ar
    10     9    10   ar
    11    10    11   ar
    12    11    26   ar
    13    12    13   ar
    14    13    14   ar
    15    14    15   ar
    16    15    16   ar
    17    15    19    1
    18    16    17   ar
    19    17    12   ar
    20    17    18    1
    21    20    21    1
    22    20    13    1
    23    21    23    1
    24    21    22    1
    25    22    27    1
    26    22    26    1
    27    23    25   ar
    28    23    24   ar
    29    26     7   ar
    30     1    28    1
    31     2    29    1
    32     3    30    1
    33     4    31    1
    34     6    32    1
    35     7    33    1
    36     8    34    1
    37     9    35    1
    38    10    36    1
    39    11    37    1
    40    16    38    1
    41    18    39    1
    42    18    40    1
    43    18    41    1
    44    19    42    1
    45    19    43    1
    46    19    44    1
    47    21    45    1
    48    27    46    1
    49    27    47    1
    50    27    48    1
@<TRIPOS>MOLECULE
16219006
 85 88 0 0 0
SMALL
GASTEIGER

@<TRIPOS>ATOM
      1 O           4.2437   -1.0901    2.3041 O.2     1  PRO11      -0.2738
      2 O           3.1957    1.0014   -1.3012 O.2     5  ASP55      -0.2735
      3 O           2.1036   -2.2991   -1.8811 O.2     2  VAL22      -0.2738
      4 O          -0.5330    3.0215    1.2040 O.2     4  TRP44      -0.2738
      5 O          -0.4964   -1.0908    1.7574 O.2     3  LEU33      -0.2738
      6 OD1         3.6407    4.5518   -1.0967 O.co2   5  ASP55      -0.5497
      7 OD2         2.9566    5.0066   -3.2262 O.co2   5  ASP55      -0.5497
      8 N           3.4802    1.7492    0.8209 N.am    1  PRO11      -0.2884
      9 N           4.1427   -1.2015    0.0202 N.am    2  VAL22      -0.3022
     10 N           0.5140    1.9237   -0.5173 N.am    5  ASP55      -0.3021
     11 N           1.2292   -2.6783    0.1988 N.am    3  LEU33      -0.3025
     12 N          -1.2168   -0.2325   -0.2451 N.am    4  TRP44      -0.3022
     13 NE1        -1.7022    2.9387   -3.7347 N.ar    4  TRP44      -0.3604
     14 CA          4.6919    0.9613    1.0320 C.3     1  PRO11       0.1023
     15 CB          5.3286    1.5730    2.2826 C.3     1  PRO11      -0.0243
     16 CG          4.1455    2.1730    3.0320 C.3     1  PRO11      -0.0350
     17 CD          3.2602    2.6857    1.9084 C.3     1  PRO11       0.0156
     18 C           4.3452   -0.5350    1.2115 C.2     1  PRO11       0.2342
     19 C           2.8955    1.8277   -0.4276 C.2     5  ASP55       0.2369
     20 CA          3.6708   -2.5797   -0.0383 C.3     2  VAL22       0.1017
     21 CA          1.6977    2.7909   -0.6126 C.3     5  ASP55       0.1047
     22 CB          4.6204   -3.4717   -0.8693 C.3     2  VAL22      -0.0197
     23 CA         -0.1402   -2.4342   -0.2296 C.3     3  LEU33       0.0996
     24 C           2.2750   -2.5175   -0.6834 C.2     2  VAL22       0.2342
     25 CB          1.7279    3.4560   -1.9772 C.3     5  ASP55       0.0138
     26 CA         -1.6403    1.0550    0.3190 C.3     4  TRP44       0.1034
     27 CB         -1.0582   -3.6211    0.0896 C.3     3  LEU33      -0.0236
     28 CG         -0.7045   -4.9259   -0.6544 C.3     3  LEU33      -0.0446
     29 C          -0.4792    2.0731    0.4217 C.2     4  TRP44       0.2343
     30 CB         -2.8183    1.6598   -0.4696 C.3     4  TRP44       0.0013
     31 C          -0.6228   -1.1941    0.5386 C.2     3  LEU33       0.2340
     32 CG1         4.0798   -4.9043   -0.9739 C.3     2  VAL22      -0.0605
     33 CG2         6.0238   -3.5129   -0.2539 C.3     2  VAL22      -0.0605
     34 CG         -2.5057    1.9340   -1.9126 C.ar    4  TRP44      -0.0201
     35 CG          2.8957    4.4230   -2.1061 C.2     5  ASP55       0.0440
     36 CD1        -1.6451   -6.0473   -0.2042 C.3     3  LEU33      -0.0626
     37 CD2        -0.7783   -4.7752   -2.1747 C.3     3  LEU33      -0.0626
     38 CD2        -2.6018    1.0272   -3.0175 C.ar    4  TRP44       0.0029
     39 CD1        -2.0023    3.1185   -2.4125 C.ar    4  TRP44       0.0060
     40 CE2        -2.0673    1.6735   -4.1325 C.ar    4  TRP44       0.0467
     41 CE3        -3.0483   -0.3033   -3.1629 C.ar    4  TRP44      -0.0523
     42 CZ2        -1.9427    1.0536   -5.3807 C.ar    4  TRP44      -0.0378
     43 CZ3        -2.9314   -0.9383   -4.4049 C.ar    4  TRP44      -0.0611
     44 CH2        -2.3833   -0.2676   -5.4955 C.ar    4  TRP44      -0.0598
     45 H           3.9513   -0.6025   -0.7923 H       2  VAL22       0.1495
     46 H           0.5195    1.1113   -1.1178 H       5  ASP55       0.1495
     47 H           1.4233   -2.5292    1.1869 H       3  LEU33       0.1495
     48 H          -1.0668   -0.2688   -1.2480 H       4  TRP44       0.1495
     49 HE1        -1.2392    3.6220   -4.3220 H       4  TRP44       0.1653
     50 HA          5.3673    1.0610    0.1729 H       1  PRO11       0.0597
     51 HB1         6.0128    2.3787    1.9880 H       1  PRO11       0.0288
     52 HB2         5.8923    0.8597    2.8911 H       1  PRO11       0.0288
     53 HG1         4.4383    2.9623    3.7298 H       1  PRO11       0.0281
     54 HG2         3.6244    1.3910    3.5974 H       1  PRO11       0.0281
     55 HD1         2.2049    2.7130    2.1931 H       1  PRO11       0.0465
     56 HD2         3.5757    3.6814    1.5805 H       1  PRO11       0.0465
     57 HA          3.5848   -2.9888    0.9754 H       2  VAL22       0.0597
     58 HA          1.6535    3.5474    0.1732 H       5  ASP55       0.0598
     59 HB          4.7095   -3.0667   -1.8863 H       2  VAL22       0.0318
     60 HA         -0.1727   -2.2160   -1.3013 H       3  LEU33       0.0594
     61 HB1         0.8067    4.0281   -2.1339 H       5  ASP55       0.0348
     62 HB2         1.7927    2.7147   -2.7834 H       5  ASP55       0.0348
     63 HA         -1.9713    0.8676    1.3483 H       4  TRP44       0.0598
     64 HB1        -2.0953   -3.3416   -0.1427 H       3  LEU33       0.0290
     65 HB2        -1.0335   -3.8155    1.1712 H       3  LEU33       0.0290
     66 HG          0.3176   -5.2236   -0.3879 H       3  LEU33       0.0296
     67 HB1        -3.1379    2.5948    0.0093 H       4  TRP44       0.0337
     68 HB2        -3.6755    0.9764   -0.4176 H       4  TRP44       0.0337
     69 HG11        3.9363   -5.3465    0.0175 H       2  VAL22       0.0233
     70 HG12        4.7738   -5.5418   -1.5314 H       2  VAL22       0.0233
     71 HG13        3.1196   -4.9342   -1.4997 H       2  VAL22       0.0233
     72 HG21        5.9931   -3.8847    0.7755 H       2  VAL22       0.0233
     73 HG22        6.4834   -2.5201   -0.2444 H       2  VAL22       0.0233
     74 HG23        6.6802   -4.1718   -0.8312 H       2  VAL22       0.0233
     75 HD11       -2.6861   -5.8169   -0.4548 H       3  LEU33       0.0232
     76 HD12       -1.5815   -6.1987    0.8784 H       3  LEU33       0.0232
     77 HD13       -1.3821   -6.9936   -0.6884 H       3  LEU33       0.0232
     78 HD21       -1.7558   -4.3960   -2.4894 H       3  LEU33       0.0232
     79 HD22       -0.6143   -5.7389   -2.6687 H       3  LEU33       0.0232
     80 HD23       -0.0107   -4.0910   -2.5465 H       3  LEU33       0.0232
     81 HD1        -1.7579    4.0523   -1.9206 H       4  TRP44       0.0810
     82 HE3        -3.4709   -0.8386   -2.3185 H       4  TRP44       0.0624
     83 HZ2        -1.5051    1.5726   -6.2281 H       4  TRP44       0.0638
     84 HZ3        -3.2642   -1.9672   -4.5169 H       4  TRP44       0.0618
     85 HH2        -2.2881   -0.7789   -6.4507 H       4  TRP44       0.0618
@<TRIPOS>BOND
     1     1    18    2
     2     2    19    2
     3     3    24    2
     4     4    29    2
     5     5    31    2
     6     6    35   ar
     7     7    35   ar
     8     8    14    1
     9     8    17    1
    10     8    19   am
    11     9    18   am
    12     9    20    1
    13    10    21    1
    14    10    29   am
    15    11    23    1
    16    11    24   am
    17    12    26    1
    18    12    31   am
    19    13    39   ar
    20    13    40   ar
    21    14    15    1
    22    14    18    1
    23    15    16    1
    24    16    17    1
    25    19    21    1
    26    20    22    1
    27    20    24    1
    28    21    25    1
    29    22    32    1
    30    22    33    1
    31    23    27    1
    32    23    31    1
    33    25    35    1
    34    26    29    1
    35    26    30    1
    36    27    28    1
    37    28    36    1
    38    28    37    1
    39    30    34    1
    40    34    38   ar
    41    34    39   ar
    42    38    40   ar
    43    38    41   ar
    44    40    42   ar
    45    41    43   ar
    46    42    44   ar
    47    43    44   ar
    48     9    45    1
    49    10    46    1
    50    11    47    1
    51    12    48    1
    52    13    49    1
    53    14    50    1
    54    15    51    1
    55    15    52    1
    56    16    53    1
    57    16    54    1
    58    17    55    1
    59    17    56    1
    60    20    57    1
    61    21    58    1
    62    22    59    1
    63    23    60    1
    64    25    61    1
    65    25    62    1
    66    26    63    1
    67    27    64    1
    68    27    65    1
    69    28    66    1
    70    30    67    1
    71    30    68    1
    72    32    69    1
    73    32    70    1
    74    32    71    1
    75    33    72    1
    76    33    73    1
    77    33    74    1
    78    36    75    1
    79    36    76    1
    80    36    77    1
    81    37    78    1
    82    37    79    1
    83    37    80    1
    84    39    81    1
    85    41    82    1
    86    42    83    1
    87    43    84    1
    88    44    85    1
