@<TRIPOS>MOLECULE
6918493
 49 51 0 0 0
SMALL
GASTEIGER

@<TRIPOS>ATOM
      1 O           0.7081    1.2753   -2.0472 O.3     1  LIG11      -0.3632
      2 O          -1.7284    1.9694    0.7747 O.3     1  LIG11      -0.4495
      3 O          -3.1725    1.0134   -1.3684 O.co2   1  LIG11      -0.5459
      4 O          -2.0636    2.4259   -2.7593 O.co2   1  LIG11      -0.5459
      5 N          -2.8318    3.9917    0.3359 N.ar    1  LIG11      -0.2002
      6 N          -3.6816    2.4131    1.9083 N.ar    1  LIG11      -0.2002
      7 C           0.1021    1.1859   -0.7200 C.3     1  LIG11       0.1609
      8 C          -1.1626    2.0990   -0.5663 C.3     1  LIG11       0.1791
      9 C          -0.2962   -0.3075   -0.5259 C.ar    1  LIG11      -0.0075
     10 C           1.2909    1.5381    0.2412 C.ar    1  LIG11      -0.0075
     11 C          -0.6920   -1.0944   -1.6229 C.ar    1  LIG11      -0.0554
     12 C           2.4900    0.7938    0.1477 C.ar    1  LIG11      -0.0554
     13 C          -0.3249   -0.9057    0.7495 C.ar    1  LIG11      -0.0554
     14 C           1.2543    2.5871    1.1742 C.ar    1  LIG11      -0.0554
     15 C          -2.2239    1.7960   -1.6671 C.2     1  LIG11       0.0856
     16 C           1.0898    2.5717   -2.4899 C.3     1  LIG11       0.0382
     17 C          -1.0840   -2.4252   -1.4554 C.ar    1  LIG11      -0.0614
     18 C           3.5927    1.0744    0.9573 C.ar    1  LIG11      -0.0614
     19 C          -0.6977   -2.2423    0.9146 C.ar    1  LIG11      -0.0614
     20 C           2.3600    2.8687    1.9855 C.ar    1  LIG11      -0.0614
     21 C          -1.0782   -3.0016   -0.1882 C.ar    1  LIG11      -0.0617
     22 C           3.5247    2.1146    1.8788 C.ar    1  LIG11      -0.0617
     23 C          -2.8005    2.8120    0.9779 C.ar    1  LIG11       0.3191
     24 C          -3.9346    4.7386    0.5054 C.ar    1  LIG11       0.0453
     25 C          -4.7692    3.1892    2.0642 C.ar    1  LIG11       0.0453
     26 C          -4.9469    4.3712    1.3691 C.ar    1  LIG11      -0.0193
     27 C          -4.0403    5.9916   -0.3072 C.3     1  LIG11      -0.0221
     28 C          -5.8197    2.7109    3.0185 C.3     1  LIG11      -0.0221
     29 H          -0.8440    3.1416   -0.6959 H       1  LIG11       0.0834
     30 H          -0.7445   -0.6499   -2.6160 H       1  LIG11       0.0621
     31 H           2.5578   -0.0162   -0.5782 H       1  LIG11       0.0621
     32 H          -0.0718   -0.3226    1.6321 H       1  LIG11       0.0621
     33 H           0.3702    3.2081    1.2890 H       1  LIG11       0.0621
     34 H           1.4940    2.4715   -3.5012 H       1  LIG11       0.0524
     35 H           1.8803    2.9934   -1.8630 H       1  LIG11       0.0524
     36 H           0.2535    3.2691   -2.5397 H       1  LIG11       0.0524
     37 H          -1.4237   -2.9927   -2.3162 H       1  LIG11       0.0618
     38 H           4.4964    0.4820    0.8611 H       1  LIG11       0.0618
     39 H          -0.7158   -2.6761    1.9094 H       1  LIG11       0.0618
     40 H           2.3033    3.6846    2.7009 H       1  LIG11       0.0618
     41 H          -1.4004   -4.0294   -0.0581 H       1  LIG11       0.0618
     42 H           4.3804    2.3386    2.5100 H       1  LIG11       0.0618
     43 H          -5.8385    4.9718    1.4859 H       1  LIG11       0.0653
     44 H          -3.1703    6.1073   -0.9622 H       1  LIG11       0.0293
     45 H          -4.0916    6.8653    0.3494 H       1  LIG11       0.0293
     46 H          -4.9354    5.9609   -0.9365 H       1  LIG11       0.0293
     47 H          -5.5385    1.7495    3.4602 H       1  LIG11       0.0293
     48 H          -6.7731    2.5786    2.4969 H       1  LIG11       0.0293
     49 H          -5.9512    3.4340    3.8293 H       1  LIG11       0.0293
@<TRIPOS>BOND
     1     1     7    1
     2     1    16    1
     3     2     8    1
     4     2    23    1
     5     3    15   ar
     6     4    15   ar
     7     5    23   ar
     8     5    24   ar
     9     6    23   ar
    10     6    25   ar
    11     7     8    1
    12     7     9    1
    13     7    10    1
    14     8    15    1
    15     9    11   ar
    16     9    13   ar
    17    10    12   ar
    18    10    14   ar
    19    11    17   ar
    20    12    18   ar
    21    13    19   ar
    22    14    20   ar
    23    17    21   ar
    24    18    22   ar
    25    19    21   ar
    26    20    22   ar
    27    24    26   ar
    28    24    27    1
    29    25    26   ar
    30    25    28    1
    31     8    29    1
    32    11    30    1
    33    12    31    1
    34    13    32    1
    35    14    33    1
    36    16    34    1
    37    16    35    1
    38    16    36    1
    39    17    37    1
    40    18    38    1
    41    19    39    1
    42    20    40    1
    43    21    41    1
    44    22    42    1
    45    26    43    1
    46    27    44    1
    47    27    45    1
    48    27    46    1
    49    28    47    1
    50    28    48    1
    51    28    49    1
@<TRIPOS>MOLECULE
16219006
 85 88 0 0 0
SMALL
GASTEIGER

@<TRIPOS>ATOM
      1 O           4.3717   -1.1877    2.2468 O.2     1  PRO11      -0.2738
      2 O           3.3765    1.0628   -1.4412 O.2     5  ASP55      -0.2735
      3 O           2.0061   -2.9045   -1.8721 O.2     2  VAL22      -0.2738
      4 O          -0.2420    2.9222    1.4322 O.2     4  TRP44      -0.2738
      5 O          -0.5857   -1.0241    1.8068 O.2     3  LEU33      -0.2738
      6 OD1         0.4058    1.5038   -2.9301 O.co2   5  ASP55      -0.5497
      7 OD2         1.5799    2.8060   -4.4037 O.co2   5  ASP55      -0.5497
      8 N           3.5003    1.6973    0.7227 N.am    1  PRO11      -0.2884
      9 N           3.9950   -1.2674   -0.0066 N.am    2  VAL22      -0.3022
     10 N           0.5314    1.9296   -0.4688 N.am    5  ASP55      -0.3021
     11 N           1.1887   -2.5200    0.2308 N.am    3  LEU33      -0.3025
     12 N          -1.2540   -0.1098   -0.1923 N.am    4  TRP44      -0.3022
     13 NE1        -3.6875    5.2276    0.5208 N.ar    4  TRP44      -0.3604
     14 CA          4.6887    0.8813    0.9716 C.3     1  PRO11       0.1023
     15 CB          5.2954    1.5007    2.2332 C.3     1  PRO11      -0.0243
     16 CG          4.0801    2.0287    2.9865 C.3     1  PRO11      -0.0350
     17 CD          3.1727    2.5258    1.8723 C.3     1  PRO11       0.0156
     18 C           4.3281   -0.6138    1.1596 C.2     1  PRO11       0.2342
     19 C           2.9445    1.7893   -0.5411 C.2     5  ASP55       0.2369
     20 CA          3.6132   -2.6794   -0.0488 C.3     2  VAL22       0.1017
     21 CA          1.7206    2.7210   -0.7197 C.3     5  ASP55       0.1047
     22 CB          4.6325   -3.5255   -0.8460 C.3     2  VAL22      -0.0197
     23 CA         -0.1868   -2.3110   -0.2072 C.3     3  LEU33       0.0996
     24 C           2.2055   -2.7352   -0.6724 C.2     2  VAL22       0.2342
     25 CB          1.6730    3.3446   -2.1124 C.3     5  ASP55       0.0138
     26 CA         -1.6280    1.1855    0.4001 C.3     4  TRP44       0.1034
     27 CB         -1.0486   -3.5467    0.0894 C.3     3  LEU33      -0.0236
     28 CG         -2.5352   -3.4072   -0.3029 C.3     3  LEU33      -0.0446
     29 C          -0.3687    2.0767    0.5482 C.2     4  TRP44       0.2343
     30 CB         -2.6698    1.8519   -0.5059 C.3     4  TRP44       0.0013
     31 C          -0.6892   -1.0952    0.5829 C.2     3  LEU33       0.2340
     32 CG1         4.1952   -4.9960   -0.9218 C.3     2  VAL22      -0.0605
     33 CG2         6.0266   -3.4646   -0.2102 C.3     2  VAL22      -0.0605
     34 CG         -3.2820    3.0845    0.0760 C.ar    4  TRP44      -0.0201
     35 CG          1.1984    2.4425   -3.2566 C.2     5  ASP55       0.0440
     36 CD1        -2.7268   -3.1985   -1.8055 C.3     3  LEU33      -0.0626
     37 CD2        -3.3147   -4.6456    0.1484 C.3     3  LEU33      -0.0626
     38 CD2        -4.3361    3.1594    1.0402 C.ar    4  TRP44       0.0029
     39 CD1        -2.9192    4.3816   -0.2270 C.ar    4  TRP44       0.0060
     40 CE2        -4.5693    4.5116    1.2958 C.ar    4  TRP44       0.0467
     41 CE3        -5.1112    2.2019    1.7264 C.ar    4  TRP44      -0.0523
     42 CZ2        -5.5403    4.9549    2.2013 C.ar    4  TRP44      -0.0378
     43 CZ3        -6.0871    2.6284    2.6348 C.ar    4  TRP44      -0.0611
     44 CH2        -6.2970    3.9860    2.8664 C.ar    4  TRP44      -0.0598
     45 H           3.8008   -0.6858   -0.8306 H       2  VAL22       0.1495
     46 H           0.2669    1.3831   -1.2980 H       5  ASP55       0.1495
     47 H           1.4265   -2.2077    1.1692 H       3  LEU33       0.1495
     48 H          -1.0069   -0.1006   -1.1817 H       4  TRP44       0.1495
     49 HE1        -3.6147    6.2336    0.5119 H       4  TRP44       0.1653
     50 HA          5.3904    0.9582    0.1325 H       1  PRO11       0.0597
     51 HB1         5.9405    2.3438    1.9549 H       1  PRO11       0.0288
     52 HB2         5.8904    0.8058    2.8326 H       1  PRO11       0.0288
     53 HG1         4.3327    2.8156    3.7028 H       1  PRO11       0.0281
     54 HG2         3.5930    1.2137    3.5340 H       1  PRO11       0.0281
     55 HD1         2.1188    2.4329    2.1345 H       1  PRO11       0.0465
     56 HD2         3.3967    3.5680    1.6194 H       1  PRO11       0.0465
     57 HA          3.5493   -3.0729    0.9733 H       2  VAL22       0.0597
     58 HA          1.7713    3.5378    0.0060 H       5  ASP55       0.0598
     59 HB          4.7105   -3.1380   -1.8702 H       2  VAL22       0.0318
     60 HA         -0.1891   -2.0919   -1.2790 H       3  LEU33       0.0594
     61 HB1         2.6582    3.7572   -2.3644 H       5  ASP55       0.0348
     62 HB2         0.9698    4.1887   -2.0935 H       5  ASP55       0.0348
     63 HA         -2.0255    1.0010    1.4051 H       4  TRP44       0.0598
     64 HB1        -0.9901   -3.7746    1.1629 H       3  LEU33       0.0290
     65 HB2        -0.6166   -4.4157   -0.4251 H       3  LEU33       0.0290
     66 HG         -2.9658   -2.5450    0.2206 H       3  LEU33       0.0296
     67 HB1        -3.4739    1.1341   -0.7194 H       4  TRP44       0.0337
     68 HB2        -2.2249    2.0927   -1.4807 H       4  TRP44       0.0337
     69 HG11        4.0611   -5.4208    0.0790 H       2  VAL22       0.0233
     70 HG12        4.9434   -5.5983   -1.4479 H       2  VAL22       0.0233
     71 HG13        3.2525   -5.1124   -1.4647 H       2  VAL22       0.0233
     72 HG21        6.0032   -3.8152    0.8276 H       2  VAL22       0.0233
     73 HG22        6.4260   -2.4460   -0.2179 H       2  VAL22       0.0233
     74 HG23        6.7319   -4.0960   -0.7618 H       2  VAL22       0.0233
     75 HD11       -2.2759   -4.0145   -2.3802 H       3  LEU33       0.0232
     76 HD12       -2.2807   -2.2578   -2.1404 H       3  LEU33       0.0232
     77 HD13       -3.7922   -3.1566   -2.0573 H       3  LEU33       0.0232
     78 HD21       -2.9504   -5.5501   -0.3500 H       3  LEU33       0.0232
     79 HD22       -4.3805   -4.5380   -0.0814 H       3  LEU33       0.0232
     80 HD23       -3.2227   -4.7915    1.2299 H       3  LEU33       0.0232
     81 HD1        -2.1595    4.7635   -0.8975 H       4  TRP44       0.0810
     82 HE3        -4.9505    1.1414    1.5571 H       4  TRP44       0.0624
     83 HZ2        -5.6993    6.0115    2.3862 H       4  TRP44       0.0638
     84 HZ3        -6.6819    1.8903    3.1659 H       4  TRP44       0.0618
     85 HH2        -7.0567    4.2983    3.5782 H       4  TRP44       0.0618
@<TRIPOS>BOND
     1     1    18    2
     2     2    19    2
     3     3    24    2
     4     4    29    2
     5     5    31    2
     6     6    35   ar
     7     7    35   ar
     8     8    14    1
     9     8    17    1
    10     8    19   am
    11     9    18   am
    12     9    20    1
    13    10    21    1
    14    10    29   am
    15    11    23    1
    16    11    24   am
    17    12    26    1
    18    12    31   am
    19    13    39   ar
    20    13    40   ar
    21    14    15    1
    22    14    18    1
    23    15    16    1
    24    16    17    1
    25    19    21    1
    26    20    22    1
    27    20    24    1
    28    21    25    1
    29    22    32    1
    30    22    33    1
    31    23    27    1
    32    23    31    1
    33    25    35    1
    34    26    29    1
    35    26    30    1
    36    27    28    1
    37    28    36    1
    38    28    37    1
    39    30    34    1
    40    34    38   ar
    41    34    39   ar
    42    38    40   ar
    43    38    41   ar
    44    40    42   ar
    45    41    43   ar
    46    42    44   ar
    47    43    44   ar
    48     9    45    1
    49    10    46    1
    50    11    47    1
    51    12    48    1
    52    13    49    1
    53    14    50    1
    54    15    51    1
    55    15    52    1
    56    16    53    1
    57    16    54    1
    58    17    55    1
    59    17    56    1
    60    20    57    1
    61    21    58    1
    62    22    59    1
    63    23    60    1
    64    25    61    1
    65    25    62    1
    66    26    63    1
    67    27    64    1
    68    27    65    1
    69    28    66    1
    70    30    67    1
    71    30    68    1
    72    32    69    1
    73    32    70    1
    74    32    71    1
    75    33    72    1
    76    33    73    1
    77    33    74    1
    78    36    75    1
    79    36    76    1
    80    36    77    1
    81    37    78    1
    82    37    79    1
    83    37    80    1
    84    39    81    1
    85    41    82    1
    86    42    83    1
    87    43    84    1
    88    44    85    1
