@<TRIPOS>MOLECULE
01178588C
 55 57 0 0 0
SMALL
GASTEIGER

@<TRIPOS>ATOM
      1 S           1.4552   -0.3054   -1.8808 S.O2    1  LIG11       0.0756
      2 C           2.1693   -1.6328   -0.9541 C.ar    1  LIG11       0.1344
      3 N           1.0793    0.8483   -0.7051 N.pl3   1  LIG11      -0.1951
      4 O           0.2077   -0.7690   -2.4500 O.2     1  LIG11      -0.1499
      5 O           2.4927    0.2068   -2.7576 O.2     1  LIG11      -0.1499
      6 C           1.4098   -2.5985   -0.3013 C.ar    1  LIG11       0.0975
      7 C           3.5636   -1.7973   -1.0199 C.ar    1  LIG11      -0.0315
      8 C           1.8869    2.0124   -0.7668 C.ar    1  LIG11       0.2006
      9 C          -0.0492   -2.5933   -0.1089 C.ar    1  LIG11       0.0023
     10 N           2.0054   -3.6948    0.2635 N.ar    1  LIG11      -0.2530
     11 C           4.1642   -2.9018   -0.4303 C.ar    1  LIG11      -0.0417
     12 C           3.1964    2.0957   -0.2758 C.ar    1  LIG11       0.2574
     13 N           1.3075    3.0096   -1.4650 N.ar    1  LIG11      -0.2325
     14 C          -0.8338   -3.6360   -0.6256 C.ar    1  LIG11      -0.0523
     15 C          -0.6912   -1.6229    0.6710 C.ar    1  LIG11      -0.0523
     16 C           3.3463   -3.8207    0.1909 C.ar    1  LIG11       0.0284
     17 N           3.9814    3.1818   -0.4970 N.ar    1  LIG11      -0.2137
     18 O           3.7032    1.0380    0.4520 O.3     1  LIG11      -0.4773
     19 C           2.1019    4.0832   -1.6882 C.ar    1  LIG11       0.0510
     20 C          -2.2129   -3.6897   -0.3929 C.ar    1  LIG11      -0.0579
     21 C          -2.0733   -1.6756    0.9032 C.ar    1  LIG11      -0.0579
     22 C           3.4159    4.1731   -1.2305 C.ar    1  LIG11       0.0602
     23 C           4.8525    1.3942    1.2115 C.3     1  LIG11       0.0805
     24 C          -2.8578   -2.7008    0.3643 C.ar    1  LIG11      -0.0465
     25 C           4.2553    5.3670   -1.5594 C.3     1  LIG11      -0.0208
     26 C          -4.3401   -2.8561    0.6642 C.3     1  LIG11      -0.0174
     27 C          -5.2444   -1.6039    0.7581 C.3     1  LIG11       0.0085
     28 C          -5.0364   -0.8638    2.1053 C.2     1  LIG11       0.0477
     29 C          -5.1033   -0.7028   -0.4741 C.3     1  LIG11      -0.0544
     30 C          -6.7167   -2.0638    0.8471 C.3     1  LIG11      -0.0544
     31 O          -5.0811   -1.5837    3.1441 O.co2   1  LIG11      -0.5493
     32 O          -4.8408    0.3829    2.0251 O.co2   1  LIG11      -0.5493
     33 H           0.0874    1.0822   -0.7834 H       1  LIG11       0.1754
     34 H           4.1853   -1.0712   -1.5396 H       1  LIG11       0.0638
     35 H           5.2371   -3.0465   -0.4710 H       1  LIG11       0.0633
     36 H          -0.3647   -4.4349   -1.1957 H       1  LIG11       0.0624
     37 H          -0.1231   -0.8295    1.1500 H       1  LIG11       0.0624
     38 H           3.7517   -4.7129    0.6591 H       1  LIG11       0.0830
     39 H           1.6490    4.8792   -2.2715 H       1  LIG11       0.0848
     40 H          -2.7809   -4.5280   -0.7887 H       1  LIG11       0.0620
     41 H          -2.5190   -0.9114    1.5372 H       1  LIG11       0.0620
     42 H           5.1158    0.5388    1.8414 H       1  LIG11       0.0660
     43 H           4.6468    2.2424    1.8755 H       1  LIG11       0.0660
     44 H           5.7087    1.6049    0.5616 H       1  LIG11       0.0660
     45 H           5.2570    5.2700   -1.1283 H       1  LIG11       0.0293
     46 H           3.7978    6.2771   -1.1600 H       1  LIG11       0.0293
     47 H           4.3627    5.4649   -2.6444 H       1  LIG11       0.0293
     48 H          -4.4133   -3.4524    1.5836 H       1  LIG11       0.0322
     49 H          -4.7614   -3.4926   -0.1283 H       1  LIG11       0.0322
     50 H          -5.2770   -1.2669   -1.3976 H       1  LIG11       0.0239
     51 H          -4.1107   -0.2468   -0.5397 H       1  LIG11       0.0239
     52 H          -5.8295    0.1185   -0.4504 H       1  LIG11       0.0239
     53 H          -7.0339   -2.5487   -0.0836 H       1  LIG11       0.0239
     54 H          -7.3915   -1.2180    1.0258 H       1  LIG11       0.0239
     55 H          -6.8736   -2.7857    1.6575 H       1  LIG11       0.0239
@<TRIPOS>BOND
     1     1     5    2
     2     1     4    2
     3     1     3    1
     4     1     2    1
     5     2     6   ar
     6     2     7   ar
     7     3     8    1
     8     6    10   ar
     9     6     9    1
    10     7    11   ar
    11     8    12   ar
    12     8    13   ar
    13     9    14   ar
    14     9    15   ar
    15    10    16   ar
    16    11    16   ar
    17    12    17   ar
    18    12    18    1
    19    13    19   ar
    20    14    20   ar
    21    15    21   ar
    22    17    22   ar
    23    18    23    1
    24    19    22   ar
    25    20    24   ar
    26    21    24   ar
    27    22    25    1
    28    24    26    1
    29    26    27    1
    30    27    30    1
    31    27    29    1
    32    27    28    1
    33    28    32   ar
    34    28    31   ar
    35     3    33    1
    36     7    34    1
    37    11    35    1
    38    14    36    1
    39    15    37    1
    40    16    38    1
    41    19    39    1
    42    20    40    1
    43    21    41    1
    44    23    42    1
    45    23    43    1
    46    23    44    1
    47    25    45    1
    48    25    46    1
    49    25    47    1
    50    26    48    1
    51    26    49    1
    52    29    50    1
    53    29    51    1
    54    29    52    1
    55    30    53    1
    56    30    54    1
    57    30    55    1
@<TRIPOS>MOLECULE
16219006
 85 88 0 0 0
SMALL
GASTEIGER

@<TRIPOS>ATOM
      1 O           4.2052   -0.9956    2.2276 O.2     1  PRO11      -0.2738
      2 O           3.2826    1.0914   -1.4007 O.2     5  ASP55      -0.2735
      3 O           2.0132   -1.8009   -1.8090 O.2     2  VAL22      -0.2738
      4 O          -0.3932    3.0238    1.1975 O.2     4  TRP44      -0.2738
      5 O          -0.3268   -1.2309    1.7402 O.2     3  LEU33      -0.2738
      6 OD1         2.8968    5.0753   -3.3476 O.co2   5  ASP55      -0.5497
      7 OD2         3.5915    4.6282   -1.2228 O.co2   5  ASP55      -0.5497
      8 N           3.4934    1.8259    0.7315 N.am    1  PRO11      -0.2884
      9 N           4.2093   -1.1229   -0.0608 N.am    2  VAL22      -0.3022
     10 N           0.5361    1.9446   -0.6034 N.am    5  ASP55      -0.3021
     11 N           1.2182   -2.8492    0.0564 N.am    3  LEU33      -0.3025
     12 N          -1.0758   -0.2528   -0.1955 N.am    4  TRP44      -0.3022
     13 NE1        -5.6245   -0.4074   -1.2754 N.ar    4  TRP44      -0.3604
     14 CA          4.7075    1.0469    0.9671 C.3     1  PRO11       0.1023
     15 CB          5.3087    1.6553    2.2366 C.3     1  PRO11      -0.0243
     16 CG          4.1045    2.2481    2.9583 C.3     1  PRO11      -0.0350
     17 CD          3.2441    2.7597    1.8155 C.3     1  PRO11       0.0156
     18 C           4.3610   -0.4490    1.1370 C.2     1  PRO11       0.2342
     19 C           2.9362    1.9023   -0.5300 C.2     5  ASP55       0.2369
     20 CA          3.6443   -2.4656   -0.1170 C.3     2  VAL22       0.1017
     21 CA          1.7110    2.8290   -0.7351 C.3     5  ASP55       0.1047
     22 CB          4.5560   -3.4473   -0.8858 C.3     2  VAL22      -0.0197
     23 CA         -0.1665   -2.5389   -0.2919 C.3     3  LEU33       0.0996
     24 C           2.2346   -2.3345   -0.7239 C.2     2  VAL22       0.2342
     25 CB          1.7227    3.4625   -2.1156 C.3     5  ASP55       0.0138
     26 CA         -1.4787    0.9968    0.4581 C.3     4  TRP44       0.1034
     27 CB         -1.0754   -3.7185    0.0670 C.3     3  LEU33      -0.0236
     28 CG         -2.5542   -3.5315   -0.3213 C.3     3  LEU33      -0.0446
     29 C          -0.3631    2.0616    0.4312 C.2     4  TRP44       0.2343
     30 CB         -2.7406    1.6063   -0.1721 C.3     4  TRP44       0.0013
     31 C          -0.5274   -1.2868    0.5273 C.2     3  LEU33       0.2340
     32 CG1         4.8146   -3.0622   -2.3450 C.3     2  VAL22      -0.0605
     33 CG2         4.0133   -4.8787   -0.8131 C.3     2  VAL22      -0.0605
     34 CG         -3.9069    0.6663   -0.3339 C.ar    4  TRP44      -0.0201
     35 CG          2.8521    4.4800   -2.2337 C.2     5  ASP55       0.0440
     36 CD1        -2.7539   -3.3113   -1.8206 C.3     3  LEU33      -0.0626
     37 CD2        -3.3694   -4.7424    0.1371 C.3     3  LEU33      -0.0626
     38 CD2        -4.4760   -0.2368    0.6283 C.ar    4  TRP44       0.0029
     39 CD1        -4.6561    0.5327   -1.4893 C.ar    4  TRP44       0.0060
     40 CE2        -5.5268   -0.9095   -0.0004 C.ar    4  TRP44       0.0467
     41 CE3        -4.1893   -0.5711    1.9692 C.ar    4  TRP44      -0.0523
     42 CZ2        -6.2852   -1.9030    0.6327 C.ar    4  TRP44      -0.0378
     43 CZ3        -4.9275   -1.5718    2.6134 C.ar    4  TRP44      -0.0611
     44 CH2        -5.9592   -2.2293    1.9513 C.ar    4  TRP44      -0.0598
     45 H           4.0225   -0.5167   -0.8704 H       2  VAL22       0.1495
     46 H           0.6195    1.0504   -1.0722 H       5  ASP55       0.1495
     47 H           1.4071   -2.8897    1.0553 H       3  LEU33       0.1495
     48 H          -1.1321   -0.3102   -1.2046 H       4  TRP44       0.1495
     49 HE1        -6.3124   -0.7001   -1.9549 H       4  TRP44       0.1653
     50 HA          5.4019    1.1527    0.1248 H       1  PRO11       0.0597
     51 HB1         5.9983    2.4638    1.9636 H       1  PRO11       0.0288
     52 HB2         5.8578    0.9402    2.8566 H       1  PRO11       0.0288
     53 HG1         4.3769    3.0366    3.6650 H       1  PRO11       0.0281
     54 HG2         3.5732    1.4627    3.5089 H       1  PRO11       0.0281
     55 HD1         2.1839    2.7831    2.0775 H       1  PRO11       0.0465
     56 HD2         3.5630    3.7571    1.4950 H       1  PRO11       0.0465
     57 HA          3.5453   -2.8431    0.9073 H       2  VAL22       0.0597
     58 HA          1.6618    3.6058    0.0314 H       5  ASP55       0.0598
     59 HB          5.5319   -3.4454   -0.3812 H       2  VAL22       0.0318
     60 HA         -0.2282   -2.3221   -1.3618 H       3  LEU33       0.0594
     61 HB1         0.7730    3.9799   -2.2995 H       5  ASP55       0.0348
     62 HB2         1.8417    2.7093   -2.9036 H       5  ASP55       0.0348
     63 HA         -1.6525    0.7852    1.5179 H       4  TRP44       0.0598
     64 HB1        -1.0158   -3.9065    1.1482 H       3  LEU33       0.0290
     65 HB2        -0.6876   -4.6244   -0.4182 H       3  LEU33       0.0290
     66 HG         -2.9423   -2.6568    0.2060 H       3  LEU33       0.0296
     67 HB1        -2.4836    2.0115   -1.1610 H       4  TRP44       0.0337
     68 HB2        -3.0713    2.4657    0.4257 H       4  TRP44       0.0337
     69 HG11        3.9076   -3.1326   -2.9531 H       2  VAL22       0.0233
     70 HG12        5.5559   -3.7364   -2.7885 H       2  VAL22       0.0233
     71 HG13        5.2083   -2.0448   -2.4267 H       2  VAL22       0.0233
     72 HG21        3.0588   -4.9764   -1.3405 H       2  VAL22       0.0233
     73 HG22        3.8611   -5.1861    0.2272 H       2  VAL22       0.0233
     74 HG23        4.7185   -5.5831   -1.2668 H       2  VAL22       0.0233
     75 HD11       -2.3028   -4.1207   -2.4045 H       3  LEU33       0.0232
     76 HD12       -2.3131   -2.3658   -2.1498 H       3  LEU33       0.0232
     77 HD13       -3.8202   -3.2685   -2.0688 H       3  LEU33       0.0232
     78 HD21       -3.0269   -5.6602   -0.3525 H       3  LEU33       0.0232
     79 HD22       -4.4305   -4.6091   -0.0976 H       3  LEU33       0.0232
     80 HD23       -3.2835   -4.8814    1.2201 H       3  LEU33       0.0232
     81 HD1        -4.5798    1.0349   -2.4450 H       4  TRP44       0.0810
     82 HE3        -3.3865   -0.0794    2.5104 H       4  TRP44       0.0624
     83 HZ2        -7.0922   -2.4137    0.1187 H       4  TRP44       0.0638
     84 HZ3        -4.6820   -1.8382    3.6380 H       4  TRP44       0.0618
     85 HH2        -6.5180   -3.0062    2.4660 H       4  TRP44       0.0618
@<TRIPOS>BOND
     1     1    18    2
     2     2    19    2
     3     3    24    2
     4     4    29    2
     5     5    31    2
     6     6    35   ar
     7     7    35   ar
     8     8    14    1
     9     8    17    1
    10     8    19   am
    11     9    18   am
    12     9    20    1
    13    10    21    1
    14    10    29   am
    15    11    23    1
    16    11    24   am
    17    12    26    1
    18    12    31   am
    19    13    39   ar
    20    13    40   ar
    21    14    15    1
    22    14    18    1
    23    15    16    1
    24    16    17    1
    25    19    21    1
    26    20    22    1
    27    20    24    1
    28    21    25    1
    29    22    32    1
    30    22    33    1
    31    23    27    1
    32    23    31    1
    33    25    35    1
    34    26    29    1
    35    26    30    1
    36    27    28    1
    37    28    36    1
    38    28    37    1
    39    30    34    1
    40    34    38   ar
    41    34    39   ar
    42    38    40   ar
    43    38    41   ar
    44    40    42   ar
    45    41    43   ar
    46    42    44   ar
    47    43    44   ar
    48     9    45    1
    49    10    46    1
    50    11    47    1
    51    12    48    1
    52    13    49    1
    53    14    50    1
    54    15    51    1
    55    15    52    1
    56    16    53    1
    57    16    54    1
    58    17    55    1
    59    17    56    1
    60    20    57    1
    61    21    58    1
    62    22    59    1
    63    23    60    1
    64    25    61    1
    65    25    62    1
    66    26    63    1
    67    27    64    1
    68    27    65    1
    69    28    66    1
    70    30    67    1
    71    30    68    1
    72    32    69    1
    73    32    70    1
    74    32    71    1
    75    33    72    1
    76    33    73    1
    77    33    74    1
    78    36    75    1
    79    36    76    1
    80    36    77    1
    81    37    78    1
    82    37    79    1
    83    37    80    1
    84    39    81    1
    85    41    82    1
    86    42    83    1
    87    43    84    1
    88    44    85    1
