@<TRIPOS>MOLECULE
01479498K
 57 61 0 0 0
SMALL
GASTEIGER

@<TRIPOS>ATOM
      1 C          -3.6707    0.2422    0.2567 C.3     1  LIG11       0.1526
      2 C          -2.4744    1.1311    0.0904 C.2     1  LIG11       0.0278
      3 C          -4.4267   -0.1385   -1.0231 C.ar    1  LIG11       0.0009
      4 O          -3.3655   -0.9971    0.9533 O.3     1  LIG11      -0.4789
      5 C          -1.2090    0.6716    0.0558 C.2     1  LIG11       0.0016
      6 C          -2.8369    2.6099    0.0050 C.2     1  LIG11       0.0721
      7 C          -3.9406    0.1531   -2.3108 C.ar    1  LIG11      -0.0091
      8 C          -5.6511   -0.8476   -0.9010 C.ar    1  LIG11      -0.0511
      9 C          -2.1626   -1.5569    0.6180 C.ar    1  LIG11       0.1298
     10 C          -1.0798   -0.7995    0.1667 C.ar    1  LIG11       0.0283
     11 C          -0.0698    1.5962   -0.1134 C.ar    1  LIG11      -0.0165
     12 O          -3.2295    3.1181    1.0928 O.co2   1  LIG11      -0.5448
     13 O          -2.7655    3.1169   -1.1491 O.co2   1  LIG11      -0.5448
     14 C          -4.6721   -0.2678   -3.4022 C.ar    1  LIG11       0.1666
     15 C          -6.3735   -1.2602   -2.0253 C.ar    1  LIG11      -0.0158
     16 C          -2.0454   -2.9342    0.7822 C.ar    1  LIG11      -0.0158
     17 C           0.1216   -1.4577   -0.1520 C.ar    1  LIG11      -0.0087
     18 C           0.6875    1.9962    0.9905 C.ar    1  LIG11      -0.0505
     19 C           0.2997    2.0320   -1.3903 C.ar    1  LIG11      -0.0505
     20 C          -5.8547   -0.9548   -3.2632 C.ar    1  LIG11       0.1662
     21 O          -4.3344   -0.0765   -4.7069 O.3     1  LIG11      -0.4526
     22 C          -0.8481   -3.5700    0.4531 C.ar    1  LIG11      -0.0164
     23 C           0.2431   -2.8394   -0.0274 C.ar    1  LIG11       0.1217
     24 C           1.8065    2.8145    0.8130 C.ar    1  LIG11      -0.0194
     25 C           1.4184    2.8519   -1.5662 C.ar    1  LIG11      -0.0194
     26 O          -6.4130   -1.2784   -4.4615 O.3     1  LIG11      -0.4526
     27 C          -5.4567   -0.6887   -5.3663 C.3     1  LIG11       0.2332
     28 O           1.3359   -3.5996   -0.3170 O.3     1  LIG11      -0.4893
     29 C           2.1756    3.2488   -0.4631 C.ar    1  LIG11       0.1201
     30 C           2.5245   -3.0794   -0.9209 C.3     1  LIG11       0.0946
     31 O           3.2912    4.0427   -0.5046 O.3     1  LIG11      -0.4951
     32 C           2.3203   -2.5058   -2.3212 C.3     1  LIG11      -0.0281
     33 C           3.3493   -2.2002    0.0146 C.3     1  LIG11      -0.0281
     34 C           3.5192    4.7327   -1.7271 C.3     1  LIG11       0.0788
     35 H          -4.3920    0.7521    0.9092 H       1  LIG11       0.0837
     36 H          -3.0187    0.7065   -2.4614 H       1  LIG11       0.0659
     37 H          -6.0313   -1.0825    0.0916 H       1  LIG11       0.0623
     38 H          -7.3051   -1.8026   -1.9255 H       1  LIG11       0.0655
     39 H          -2.8902   -3.5085    1.1485 H       1  LIG11       0.0655
     40 H           0.9467   -0.8536   -0.5013 H       1  LIG11       0.0661
     41 H           0.3982    1.6812    1.9895 H       1  LIG11       0.0625
     42 H          -0.3045    1.7494   -2.2503 H       1  LIG11       0.0625
     43 H          -0.7667   -4.6475    0.5663 H       1  LIG11       0.0655
     44 H           2.3811    3.1293    1.6789 H       1  LIG11       0.0654
     45 H           1.6578    3.1655   -2.5753 H       1  LIG11       0.0654
     46 H          -5.0830   -1.4718   -6.0363 H       1  LIG11       0.1166
     47 H          -5.9675    0.0709   -5.9695 H       1  LIG11       0.1166
     48 H           3.1353   -3.9792   -1.0738 H       1  LIG11       0.0727
     49 H           1.8283   -1.5311   -2.3165 H       1  LIG11       0.0265
     50 H           1.6985   -3.1768   -2.9232 H       1  LIG11       0.0265
     51 H           3.2832   -2.3775   -2.8268 H       1  LIG11       0.0265
     52 H           2.8984   -1.2217    0.1902 H       1  LIG11       0.0265
     53 H           4.3485   -2.0293   -0.3995 H       1  LIG11       0.0265
     54 H           3.4559   -2.6811    0.9927 H       1  LIG11       0.0265
     55 H           4.3557    5.4207   -1.5707 H       1  LIG11       0.0660
     56 H           2.6485    5.3297   -2.0196 H       1  LIG11       0.0660
     57 H           3.8071    4.0365   -2.5216 H       1  LIG11       0.0660
@<TRIPOS>BOND
     1     1     4    1
     2     1     2    1
     3     1     3    1
     4     2     5    2
     5     2     6    1
     6     3     8   ar
     7     3     7   ar
     8     4     9    1
     9     5    10    1
    10     5    11    1
    11     6    13   ar
    12     6    12   ar
    13     7    14   ar
    14     8    15   ar
    15     9    16   ar
    16     9    10   ar
    17    10    17   ar
    18    11    18   ar
    19    11    19   ar
    20    14    21    1
    21    14    20   ar
    22    15    20   ar
    23    16    22   ar
    24    17    23   ar
    25    18    24   ar
    26    19    25   ar
    27    20    26    1
    28    21    27    1
    29    22    23   ar
    30    23    28    1
    31    24    29   ar
    32    25    29   ar
    33    26    27    1
    34    28    30    1
    35    29    31    1
    36    30    33    1
    37    30    32    1
    38    31    34    1
    39     1    35    1
    40     7    36    1
    41     8    37    1
    42    15    38    1
    43    16    39    1
    44    17    40    1
    45    18    41    1
    46    19    42    1
    47    22    43    1
    48    24    44    1
    49    25    45    1
    50    27    46    1
    51    27    47    1
    52    30    48    1
    53    32    49    1
    54    32    50    1
    55    32    51    1
    56    33    52    1
    57    33    53    1
    58    33    54    1
    59    34    55    1
    60    34    56    1
    61    34    57    1
@<TRIPOS>MOLECULE
16219006
 85 88 0 0 0
SMALL
GASTEIGER

@<TRIPOS>ATOM
      1 O           4.1785   -1.0660    2.2381 O.2     1  PRO11      -0.2738
      2 O           2.8445    0.8379   -1.2662 O.2     5  ASP55      -0.2735
      3 O           2.0511   -2.5342   -1.9245 O.2     2  VAL22      -0.2738
      4 O          -0.4740    2.9567    1.3006 O.2     4  TRP44      -0.2738
      5 O          -0.3287   -1.0115    1.7341 O.2     3  LEU33      -0.2738
      6 OD1         2.6374    5.5991   -1.4086 O.co2   5  ASP55      -0.5497
      7 OD2         4.0709    3.9194   -1.9801 O.co2   5  ASP55      -0.5497
      8 N           3.3761    1.7612    0.7389 N.am    1  PRO11      -0.2884
      9 N           4.0578   -1.2368   -0.0418 N.am    2  VAL22      -0.3022
     10 N           0.3399    2.0513   -0.6507 N.am    5  ASP55      -0.3021
     11 N           1.2010   -2.7053    0.1935 N.am    3  LEU33      -0.3025
     12 N          -1.2032   -0.1989   -0.2216 N.am    4  TRP44      -0.3022
     13 NE1        -5.7397   -0.5376    0.0329 N.ar    4  TRP44      -0.3604
     14 CA          4.5873    0.9583    0.9061 C.3     1  PRO11       0.1023
     15 CB          5.2974    1.5888    2.1096 C.3     1  PRO11      -0.0243
     16 CG          4.1689    2.2517    2.8899 C.3     1  PRO11      -0.0350
     17 CD          3.2531    2.7568    1.7890 C.3     1  PRO11       0.0156
     18 C           4.2607   -0.5377    1.1308 C.2     1  PRO11       0.2342
     19 C           2.6940    1.7668   -0.4584 C.2     5  ASP55       0.2369
     20 CA          3.6386   -2.6337   -0.0733 C.3     2  VAL22       0.1017
     21 CA          1.5889    2.8310   -0.6778 C.3     5  ASP55       0.1047
     22 CB          4.6242   -3.5001   -0.8877 C.3     2  VAL22      -0.0197
     23 CA         -0.1720   -2.4285   -0.2202 C.3     3  LEU33       0.0996
     24 C           2.2365   -2.6392   -0.7136 C.2     2  VAL22       0.2342
     25 CB          1.7520    3.5103   -2.0264 C.3     5  ASP55       0.0138
     26 CA         -1.6535    1.0574    0.3860 C.3     4  TRP44       0.1034
     27 CB         -1.0909   -3.5964    0.1576 C.3     3  LEU33      -0.0236
     28 CG         -2.5561   -3.4428   -0.2999 C.3     3  LEU33      -0.0446
     29 C          -0.5069    2.0807    0.4389 C.2     4  TRP44       0.2343
     30 CB         -2.8256    1.6806   -0.3847 C.3     4  TRP44       0.0013
     31 C          -0.5658   -1.1525    0.5355 C.2     3  LEU33       0.2340
     32 CG1         4.1405   -4.9540   -0.9745 C.3     2  VAL22      -0.0605
     33 CG2         6.0249   -3.4795   -0.2646 C.3     2  VAL22      -0.0605
     34 CG         -4.0048    0.7577   -0.4990 C.ar    4  TRP44      -0.0201
     35 CG          2.9357    4.4346   -1.7927 C.2     5  ASP55       0.0440
     36 CD1        -2.6878   -3.3649   -1.8216 C.3     3  LEU33      -0.0626
     37 CD2        -3.3889   -4.6153    0.2259 C.3     3  LEU33      -0.0626
     38 CD2        -4.5209    0.1639   -1.6960 C.ar    4  TRP44       0.0029
     39 CD1        -4.7916    0.3056    0.5430 C.ar    4  TRP44       0.0060
     40 CE2        -5.6004   -0.6415   -1.3309 C.ar    4  TRP44       0.0467
     41 CE3        -4.1667    0.2327   -3.0593 C.ar    4  TRP44      -0.0523
     42 CZ2        -6.3431   -1.3814   -2.2589 C.ar    4  TRP44      -0.0378
     43 CZ3        -4.8995   -0.4994   -4.0007 C.ar    4  TRP44      -0.0611
     44 CH2        -5.9716   -1.2942   -3.6034 C.ar    4  TRP44      -0.0598
     45 H           3.8175   -0.6566   -0.8551 H       2  VAL22       0.1495
     46 H           0.3764    1.1904   -1.1830 H       5  ASP55       0.1495
     47 H           1.4217   -2.4816    1.1628 H       3  LEU33       0.1495
     48 H          -1.3536   -0.3467   -1.2118 H       4  TRP44       0.1495
     49 HE1        -6.4432   -1.0179    0.5757 H       4  TRP44       0.1653
     50 HA          5.2169    1.0438    0.0115 H       1  PRO11       0.0597
     51 HB1         5.9932    2.3621    1.7603 H       1  PRO11       0.0288
     52 HB2         5.8649    0.8782    2.7175 H       1  PRO11       0.0288
     53 HG1         4.5169    3.0523    3.5484 H       1  PRO11       0.0281
     54 HG2         3.6488    1.5048    3.5015 H       1  PRO11       0.0281
     55 HD1         2.2168    2.8464    2.1239 H       1  PRO11       0.0465
     56 HD2         3.5955    3.7199    1.3946 H       1  PRO11       0.0465
     57 HA          3.5696   -3.0256    0.9482 H       2  VAL22       0.0597
     58 HA          1.5652    3.5680    0.1271 H       5  ASP55       0.0598
     59 HB          4.7041   -3.1058   -1.9096 H       2  VAL22       0.0318
     60 HA         -0.1991   -2.2457   -1.2976 H       3  LEU33       0.0594
     61 HB1         0.8604    4.0870   -2.2971 H       5  ASP55       0.0348
     62 HB2         1.9591    2.8064   -2.8399 H       5  ASP55       0.0348
     63 HA         -1.9460    0.8453    1.4220 H       4  TRP44       0.0598
     64 HB1        -1.0741   -3.7291    1.2483 H       3  LEU33       0.0290
     65 HB2        -0.6784   -4.5230   -0.2643 H       3  LEU33       0.0290
     66 HG         -2.9736   -2.5256    0.1312 H       3  LEU33       0.0296
     67 HB1        -2.4948    1.9815   -1.3868 H       4  TRP44       0.0337
     68 HB2        -3.1470    2.6039    0.1147 H       4  TRP44       0.0337
     69 HG11        4.0067   -5.3863    0.0228 H       2  VAL22       0.0233
     70 HG12        4.8629   -5.5724   -1.5176 H       2  VAL22       0.0233
     71 HG13        3.1869   -5.0288   -1.5059 H       2  VAL22       0.0233
     72 HG21        6.0028   -3.8382    0.7702 H       2  VAL22       0.0233
     73 HG22        6.4476   -2.4699   -0.2665 H       2  VAL22       0.0233
     74 HG23        6.7098   -4.1216   -0.8293 H       2  VAL22       0.0233
     75 HD11       -2.2069   -4.2213   -2.3060 H       3  LEU33       0.0232
     76 HD12       -2.2350   -2.4513   -2.2167 H       3  LEU33       0.0232
     77 HD13       -3.7410   -3.3589   -2.1206 H       3  LEU33       0.0232
     78 HD21       -3.0366   -5.5686   -0.1828 H       3  LEU33       0.0232
     79 HD22       -4.4426   -4.4974   -0.0490 H       3  LEU33       0.0232
     80 HD23       -3.3352   -4.6730    1.3182 H       3  LEU33       0.0232
     81 HD1        -4.7448    0.5040    1.6060 H       4  TRP44       0.0810
     82 HE3        -3.3375    0.8538   -3.3860 H       4  TRP44       0.0624
     83 HZ2        -7.1789   -2.0010   -1.9520 H       4  TRP44       0.0638
     84 HZ3        -4.6280   -0.4414   -5.0520 H       4  TRP44       0.0618
     85 HH2        -6.5294   -1.8542   -4.3503 H       4  TRP44       0.0618
@<TRIPOS>BOND
     1     1    18    2
     2     2    19    2
     3     3    24    2
     4     4    29    2
     5     5    31    2
     6     6    35   ar
     7     7    35   ar
     8     8    14    1
     9     8    17    1
    10     8    19   am
    11     9    18   am
    12     9    20    1
    13    10    21    1
    14    10    29   am
    15    11    23    1
    16    11    24   am
    17    12    26    1
    18    12    31   am
    19    13    39   ar
    20    13    40   ar
    21    14    15    1
    22    14    18    1
    23    15    16    1
    24    16    17    1
    25    19    21    1
    26    20    22    1
    27    20    24    1
    28    21    25    1
    29    22    32    1
    30    22    33    1
    31    23    27    1
    32    23    31    1
    33    25    35    1
    34    26    29    1
    35    26    30    1
    36    27    28    1
    37    28    36    1
    38    28    37    1
    39    30    34    1
    40    34    38   ar
    41    34    39   ar
    42    38    40   ar
    43    38    41   ar
    44    40    42   ar
    45    41    43   ar
    46    42    44   ar
    47    43    44   ar
    48     9    45    1
    49    10    46    1
    50    11    47    1
    51    12    48    1
    52    13    49    1
    53    14    50    1
    54    15    51    1
    55    15    52    1
    56    16    53    1
    57    16    54    1
    58    17    55    1
    59    17    56    1
    60    20    57    1
    61    21    58    1
    62    22    59    1
    63    23    60    1
    64    25    61    1
    65    25    62    1
    66    26    63    1
    67    27    64    1
    68    27    65    1
    69    28    66    1
    70    30    67    1
    71    30    68    1
    72    32    69    1
    73    32    70    1
    74    32    71    1
    75    33    72    1
    76    33    73    1
    77    33    74    1
    78    36    75    1
    79    36    76    1
    80    36    77    1
    81    37    78    1
    82    37    79    1
    83    37    80    1
    84    39    81    1
    85    41    82    1
    86    42    83    1
    87    43    84    1
    88    44    85    1
