@<TRIPOS>MOLECULE
2-[[2-[2-butyl-4-[(Z)-2-carboxy-3-(6-methoxy-1,3-benzodioxol-5-yl)prop-1-enyl]pyrazol-3-yl]-5-methoxyphenoxy]methyl]benzoic acid
 77 81 0 0 0
SMALL
GASTEIGER

@<TRIPOS>ATOM
      1 O           3.9821   -0.8229    0.2883 O.3     1  LIG11      -0.4866
      2 O          -1.6155    6.0605   -3.7624 O.3     1  LIG11      -0.4526
      3 O          -2.9443    4.6406   -5.1879 O.3     1  LIG11      -0.4525
      4 O          -2.4222    0.8782   -2.1304 O.3     1  LIG11      -0.4947
      5 O           5.8201   -3.8223   -2.7300 O.3     1  LIG11      -0.4950
      6 O           1.5863    4.2587   -0.4360 O.co2   1  LIG11      -0.5449
      7 O           2.3943    2.9454   -2.1140 O.co2   1  LIG11      -0.5449
      8 O           2.8440   -1.2226    4.3649 O.co2   1  LIG11      -0.5446
      9 O           1.8558    0.6349    5.1959 O.co2   1  LIG11      -0.5446
     10 N           0.1323   -2.4786    0.1717 N.ar    1  LIG11      -0.2630
     11 N          -0.7840   -1.8276    0.9095 N.ar    1  LIG11      -0.1785
     12 C           1.1475   -1.6593   -0.3196 C.ar    1  LIG11       0.0795
     13 C          -0.1102   -3.8692   -0.1811 C.3     1  LIG11       0.0422
     14 C          -1.2712   -4.5932    0.5184 C.3     1  LIG11      -0.0336
     15 C           0.7047   -0.3690   -0.0329 C.ar    1  LIG11       0.0207
     16 C           2.3718   -2.1711   -0.9678 C.ar    1  LIG11       0.0425
     17 C          -1.8655   -5.7203   -0.3377 C.3     1  LIG11      -0.0542
     18 C          -0.3920   -0.5555    0.8342 C.ar    1  LIG11       0.0571
     19 C           1.3019    0.8576   -0.4656 C.2     1  LIG11      -0.0459
     20 C          -0.7201    2.4633   -0.4879 C.3     1  LIG11       0.0029
     21 C           3.6720   -1.8760   -0.5203 C.ar    1  LIG11       0.1336
     22 C           0.7202    2.0605   -0.6695 C.2     1  LIG11      -0.0200
     23 C          -1.4020    2.9860   -1.7465 C.ar    1  LIG11       0.0023
     24 C           2.2576   -3.0192   -2.0850 C.ar    1  LIG11      -0.0456
     25 C          -0.8586   -6.7701   -0.7787 C.3     1  LIG11      -0.0652
     26 C           4.7911   -2.4605   -1.1372 C.ar    1  LIG11       0.0224
     27 C          -2.2215    2.1632   -2.5657 C.ar    1  LIG11       0.1273
     28 C          -1.1908    4.3340   -2.1046 C.ar    1  LIG11      -0.0092
     29 C           3.3754   -3.6073   -2.6919 C.ar    1  LIG11      -0.0191
     30 C          -1.7446    4.8016   -3.2673 C.ar    1  LIG11       0.1667
     31 C           4.6514   -3.3312   -2.2152 C.ar    1  LIG11       0.1236
     32 C          -2.5064    3.9931   -4.0729 C.ar    1  LIG11       0.1697
     33 C          -2.7726    2.6782   -3.7485 C.ar    1  LIG11       0.0258
     34 C           1.6766    3.1890   -1.1035 C.2     1  LIG11       0.0680
     35 C           3.7566   -0.9357    1.7024 C.3     1  LIG11       0.1153
     36 C          -2.2743    5.9101   -5.0305 C.3     1  LIG11       0.2332
     37 C           4.1206    0.4201    2.3061 C.ar    1  LIG11      -0.0016
     38 C           3.5323    0.8953    3.5059 C.ar    1  LIG11       0.0037
     39 C           5.0460    1.2501    1.6314 C.ar    1  LIG11      -0.0547
     40 C          -3.4436    0.1239   -2.7640 C.3     1  LIG11       0.0788
     41 C           3.7927    2.2291    3.8917 C.ar    1  LIG11      -0.0525
     42 C           5.3108    2.5514    2.0546 C.ar    1  LIG11      -0.0614
     43 C           5.7456   -4.3740   -4.0378 C.3     1  LIG11       0.0788
     44 C           4.6608    3.0522    3.1712 C.ar    1  LIG11      -0.0611
     45 C           2.6562    0.0409    4.4025 C.2     1  LIG11       0.0720
     46 H          -0.3227   -3.8522   -1.2550 H       1  LIG11       0.0509
     47 H           0.8207   -4.4189   -0.0059 H       1  LIG11       0.0509
     48 H          -0.9236   -4.9943    1.4779 H       1  LIG11       0.0283
     49 H          -2.0925   -3.9049    0.7464 H       1  LIG11       0.0283
     50 H          -2.6645   -6.2100    0.2316 H       1  LIG11       0.0263
     51 H          -2.3382   -5.2864   -1.2278 H       1  LIG11       0.0263
     52 H          -0.9386    0.1857    1.3994 H       1  LIG11       0.0854
     53 H           2.3699    0.8079   -0.6841 H       1  LIG11       0.0628
     54 H          -1.3317    1.6486   -0.0987 H       1  LIG11       0.0363
     55 H          -0.7866    3.2312    0.2931 H       1  LIG11       0.0363
     56 H           1.2832   -3.2076   -2.5256 H       1  LIG11       0.0626
     57 H          -0.3585   -7.2224    0.0824 H       1  LIG11       0.0230
     58 H          -1.3675   -7.5649   -1.3343 H       1  LIG11       0.0230
     59 H          -0.0974   -6.3442   -1.4398 H       1  LIG11       0.0230
     60 H           5.7849   -2.1752   -0.8004 H       1  LIG11       0.0691
     61 H          -0.5675    4.9800   -1.4888 H       1  LIG11       0.0659
     62 H           3.2097   -4.2598   -3.5409 H       1  LIG11       0.0654
     63 H          -3.3756    2.0846   -4.4201 H       1  LIG11       0.0692
     64 H           2.7082   -1.1759    1.8875 H       1  LIG11       0.0748
     65 H           4.4115   -1.7094    2.1176 H       1  LIG11       0.0748
     66 H          -3.0159    6.7099   -5.1346 H       1  LIG11       0.1166
     67 H          -1.5304    6.0179   -5.8296 H       1  LIG11       0.1166
     68 H           5.5314    0.9013    0.7229 H       1  LIG11       0.0622
     69 H          -3.5613   -0.8141   -2.2126 H       1  LIG11       0.0660
     70 H          -4.4057    0.6475   -2.7328 H       1  LIG11       0.0660
     71 H          -3.1668   -0.1282   -3.7922 H       1  LIG11       0.0660
     72 H           3.2883    2.6285    4.7707 H       1  LIG11       0.0624
     73 H           5.9818    3.1803    1.4786 H       1  LIG11       0.0618
     74 H           6.7675   -4.5613   -4.3812 H       1  LIG11       0.0660
     75 H           5.2177   -5.3332   -4.0265 H       1  LIG11       0.0660
     76 H           5.2816   -3.6766   -4.7440 H       1  LIG11       0.0660
     77 H           4.8139    4.0815    3.4771 H       1  LIG11       0.0618
@<TRIPOS>BOND
     1     1    35    1
     2     1    21    1
     3     2    36    1
     4     2    30    1
     5     3    32    1
     6     3    36    1
     7     4    27    1
     8     4    40    1
     9     5    31    1
    10     5    43    1
    11     6    34   ar
    12     7    34   ar
    13     8    45   ar
    14     9    45   ar
    15    10    11   ar
    16    10    12   ar
    17    10    13    1
    18    11    18   ar
    19    12    15   ar
    20    13    14    1
    21    14    17    1
    22    15    18   ar
    23    15    19    1
    24    16    24   ar
    25    16    21   ar
    26    16    12    1
    27    17    25    1
    28    19    22    2
    29    20    22    1
    30    20    23    1
    31    21    26   ar
    32    22    34    1
    33    23    28   ar
    34    23    27   ar
    35    24    29   ar
    36    26    31   ar
    37    27    33   ar
    38    28    30   ar
    39    29    31   ar
    40    30    32   ar
    41    32    33   ar
    42    35    37    1
    43    37    39   ar
    44    37    38   ar
    45    38    41   ar
    46    38    45    1
    47    39    42   ar
    48    41    44   ar
    49    42    44   ar
    50    13    46    1
    51    13    47    1
    52    14    48    1
    53    14    49    1
    54    17    50    1
    55    17    51    1
    56    18    52    1
    57    19    53    1
    58    20    54    1
    59    20    55    1
    60    24    56    1
    61    25    57    1
    62    25    58    1
    63    25    59    1
    64    26    60    1
    65    28    61    1
    66    29    62    1
    67    33    63    1
    68    35    64    1
    69    35    65    1
    70    36    66    1
    71    36    67    1
    72    39    68    1
    73    40    69    1
    74    40    70    1
    75    40    71    1
    76    41    72    1
    77    42    73    1
    78    43    74    1
    79    43    75    1
    80    43    76    1
    81    44    77    1
@<TRIPOS>MOLECULE
16219006
 85 88 0 0 0
SMALL
GASTEIGER

@<TRIPOS>ATOM
      1 O           4.2042   -0.9680    2.2467 O.2     1  PRO11      -0.2738
      2 O           3.0868    1.0637   -1.3070 O.2     5  ASP55      -0.2735
      3 O           1.9393   -1.9514   -1.8012 O.2     2  VAL22      -0.2738
      4 O          -0.5542    2.9015    1.2439 O.2     4  TRP44      -0.2738
      5 O          -0.7058   -1.2577    1.7843 O.2     3  LEU33      -0.2738
      6 OD1         3.2524    5.0530   -0.8202 O.co2   5  ASP55      -0.5497
      7 OD2         3.7040    4.4491   -2.9704 O.co2   5  ASP55      -0.5497
      8 N           3.4494    1.8623    0.7798 N.am    1  PRO11      -0.2884
      9 N           4.1362   -1.0964   -0.0398 N.am    2  VAL22      -0.3022
     10 N           0.4398    2.0215   -0.6291 N.am    5  ASP55      -0.3021
     11 N           1.1863   -2.7866    0.1849 N.am    3  LEU33      -0.3025
     12 N          -1.1267   -0.3148   -0.2699 N.am    4  TRP44      -0.3022
     13 NE1        -2.0201    1.6552   -4.1577 N.ar    4  TRP44      -0.3604
     14 CA          4.6663    1.0738    0.9659 C.3     1  PRO11       0.1023
     15 CB          5.3264    1.6819    2.2065 C.3     1  PRO11      -0.0243
     16 CG          4.1581    2.2880    2.9758 C.3     1  PRO11      -0.0350
     17 CD          3.2555    2.8046    1.8682 C.3     1  PRO11       0.0156
     18 C           4.3255   -0.4224    1.1515 C.2     1  PRO11       0.2342
     19 C           2.8142    1.9086   -0.4412 C.2     5  ASP55       0.2369
     20 CA          3.6100   -2.4533   -0.0869 C.3     2  VAL22       0.1017
     21 CA          1.6300    2.8857   -0.6287 C.3     5  ASP55       0.1047
     22 CB          4.5402   -3.4069   -0.8692 C.3     2  VAL22      -0.0197
     23 CA         -0.2054   -2.5805   -0.1863 C.3     3  LEU33       0.0996
     24 C           2.1856   -2.3706   -0.6719 C.2     2  VAL22       0.2342
     25 CB          1.7527    3.6132   -1.9571 C.3     5  ASP55       0.0138
     26 CA         -1.6103    0.9659    0.2567 C.3     4  TRP44       0.1034
     27 CB         -1.0759   -3.7844    0.1910 C.3     3  LEU33      -0.0236
     28 CG         -0.7271   -5.0828   -0.5665 C.3     3  LEU33      -0.0446
     29 C          -0.4989    2.0300    0.3766 C.2     4  TRP44       0.2343
     30 CB         -2.8067    1.4940   -0.5526 C.3     4  TRP44       0.0013
     31 C          -0.6995   -1.3278    0.5570 C.2     3  LEU33       0.2340
     32 CG1         4.7962   -3.0001   -2.3233 C.3     2  VAL22      -0.0605
     33 CG2         4.0256   -4.8493   -0.8142 C.3     2  VAL22      -0.0605
     34 CG         -2.5173    1.8268   -1.9895 C.ar    4  TRP44      -0.0201
     35 CG          3.0234    4.4531   -1.9082 C.2     5  ASP55       0.0440
     36 CD1        -1.6720   -6.2036   -0.1269 C.3     3  LEU33      -0.0626
     37 CD2        -0.7970   -4.9198   -2.0868 C.3     3  LEU33      -0.0626
     38 CD2        -2.4202    3.1433   -2.5502 C.ar    4  TRP44       0.0029
     39 CD1        -2.3092    0.9373   -3.0279 C.ar    4  TRP44       0.0060
     40 CE2        -2.1143    3.0018   -3.9032 C.ar    4  TRP44       0.0467
     41 CE3        -2.5524    4.4460   -2.0269 C.ar    4  TRP44      -0.0523
     42 CZ2        -1.9336    4.0942   -4.7598 C.ar    4  TRP44      -0.0378
     43 CZ3        -2.3856    5.5499   -2.8710 C.ar    4  TRP44      -0.0611
     44 CH2        -2.0796    5.3736   -4.2178 C.ar    4  TRP44      -0.0598
     45 H           3.9173   -0.4921   -0.8425 H       2  VAL22       0.1495
     46 H           0.4679    1.2596   -1.2910 H       5  ASP55       0.1495
     47 H           1.3917   -2.7501    1.1803 H       3  LEU33       0.1495
     48 H          -0.8303   -0.3363   -1.2378 H       4  TRP44       0.1495
     49 HE1        -1.7757    1.2630   -5.0563 H       4  TRP44       0.1653
     50 HA          5.3233    1.1769    0.0937 H       1  PRO11       0.0597
     51 HB1         6.0103    2.4836    1.9011 H       1  PRO11       0.0288
     52 HB2         5.8949    0.9647    2.8057 H       1  PRO11       0.0288
     53 HG1         4.4668    3.0757    3.6684 H       1  PRO11       0.0281
     54 HG2         3.6430    1.5087    3.5496 H       1  PRO11       0.0281
     55 HD1         2.2067    2.8414    2.1730 H       1  PRO11       0.0465
     56 HD2         3.5744    3.7956    1.5315 H       1  PRO11       0.0465
     57 HA          3.5383   -2.8350    0.9389 H       2  VAL22       0.0597
     58 HA          1.5471    3.5951    0.1956 H       5  ASP55       0.0598
     59 HB          5.5154   -3.3913   -0.3630 H       2  VAL22       0.0318
     60 HA         -0.2894   -2.3975   -1.2617 H       3  LEU33       0.0594
     61 HB1         0.8938    4.2731   -2.1223 H       5  ASP55       0.0348
     62 HB2         1.7924    2.9102   -2.7986 H       5  ASP55       0.0348
     63 HA         -1.9573    0.7821    1.2820 H       4  TRP44       0.0598
     64 HB1        -2.1286   -3.5299    0.0080 H       3  LEU33       0.0290
     65 HB2        -0.9928   -3.9730    1.2701 H       3  LEU33       0.0290
     66 HG          0.2946   -5.3844   -0.3032 H       3  LEU33       0.0296
     67 HB1        -3.2104    2.3819   -0.0503 H       4  TRP44       0.0337
     68 HB2        -3.6090    0.7442   -0.5338 H       4  TRP44       0.0337
     69 HG11        3.8969   -3.0923   -2.9393 H       2  VAL22       0.0233
     70 HG12        5.5601   -3.6483   -2.7678 H       2  VAL22       0.0233
     71 HG13        5.1608   -1.9710   -2.3941 H       2  VAL22       0.0233
     72 HG21        3.0743   -4.9595   -1.3455 H       2  VAL22       0.0233
     73 HG22        3.8769   -5.1718    0.2215 H       2  VAL22       0.0233
     74 HG23        4.7459   -5.5342   -1.2748 H       2  VAL22       0.0233
     75 HD11       -2.7113   -5.9669   -0.3783 H       3  LEU33       0.0232
     76 HD12       -1.6112   -6.3627    0.9546 H       3  LEU33       0.0232
     77 HD13       -1.4115   -7.1469   -0.6182 H       3  LEU33       0.0232
     78 HD21       -1.7626   -4.5072   -2.3982 H       3  LEU33       0.0232
     79 HD22       -0.6628   -5.8841   -2.5891 H       3  LEU33       0.0232
     80 HD23       -0.0064   -4.2573   -2.4540 H       3  LEU33       0.0232
     81 HD1        -2.3163   -0.1433   -3.0596 H       4  TRP44       0.0810
     82 HE3        -2.7636    4.6016   -0.9735 H       4  TRP44       0.0624
     83 HZ2        -1.6706    3.9608   -5.8034 H       4  TRP44       0.0638
     84 HZ3        -2.4732    6.5539   -2.4631 H       4  TRP44       0.0618
     85 HH2        -1.9296    6.2438   -4.8521 H       4  TRP44       0.0618
@<TRIPOS>BOND
     1     1    18    2
     2     2    19    2
     3     3    24    2
     4     4    29    2
     5     5    31    2
     6     6    35   ar
     7     7    35   ar
     8     8    14    1
     9     8    17    1
    10     8    19   am
    11     9    18   am
    12     9    20    1
    13    10    21    1
    14    10    29   am
    15    11    23    1
    16    11    24   am
    17    12    26    1
    18    12    31   am
    19    13    39   ar
    20    13    40   ar
    21    14    15    1
    22    14    18    1
    23    15    16    1
    24    16    17    1
    25    19    21    1
    26    20    22    1
    27    20    24    1
    28    21    25    1
    29    22    32    1
    30    22    33    1
    31    23    27    1
    32    23    31    1
    33    25    35    1
    34    26    29    1
    35    26    30    1
    36    27    28    1
    37    28    36    1
    38    28    37    1
    39    30    34    1
    40    34    38   ar
    41    34    39   ar
    42    38    40   ar
    43    38    41   ar
    44    40    42   ar
    45    41    43   ar
    46    42    44   ar
    47    43    44   ar
    48     9    45    1
    49    10    46    1
    50    11    47    1
    51    12    48    1
    52    13    49    1
    53    14    50    1
    54    15    51    1
    55    15    52    1
    56    16    53    1
    57    16    54    1
    58    17    55    1
    59    17    56    1
    60    20    57    1
    61    21    58    1
    62    22    59    1
    63    23    60    1
    64    25    61    1
    65    25    62    1
    66    26    63    1
    67    27    64    1
    68    27    65    1
    69    28    66    1
    70    30    67    1
    71    30    68    1
    72    32    69    1
    73    32    70    1
    74    32    71    1
    75    33    72    1
    76    33    73    1
    77    33    74    1
    78    36    75    1
    79    36    76    1
    80    36    77    1
    81    37    78    1
    82    37    79    1
    83    37    80    1
    84    39    81    1
    85    41    82    1
    86    42    83    1
    87    43    84    1
    88    44    85    1
