@<TRIPOS>MOLECULE
9939443
 70 74 0 0 0
SMALL
GASTEIGER

@<TRIPOS>ATOM
      1 S          -2.2503    2.0030    0.7648 S.O2    1  LIG11       0.0908
      2 O          -3.6022   -0.9456   -0.4334 O.3     1  LIG11      -0.4435
      3 O          -3.3416    1.8917   -0.1746 O.2     1  LIG11      -0.1484
      4 O          -2.3419    2.9247    1.8797 O.2     1  LIG11      -0.1484
      5 O          -2.1939   -3.0983   -1.8980 O.3     1  LIG11      -0.4715
      6 O          -6.4605   -1.2274   -0.6439 O.3     1  LIG11      -0.4914
      7 O          -2.8739   -3.9684    1.0585 O.3     1  LIG11      -0.3917
      8 N          -1.9346    0.4775    1.4264 N.pl3   1  LIG11      -0.1950
      9 N           0.3355    2.6274    0.5820 N.ar    1  LIG11      -0.2351
     10 N          -0.1602   -0.7041    0.6860 N.ar    1  LIG11      -0.2073
     11 N          -0.2683   -2.4178   -0.9426 N.ar    1  LIG11      -0.1899
     12 N           4.6848   -1.9935    0.0972 N.ar    1  LIG11      -0.2552
     13 N           6.1693   -0.2644    1.8670 N.ar    1  LIG11      -0.5621
     14 N           4.2928    0.8957    2.3613 N.ar    1  LIG11      -0.1535
     15 N           6.3652    0.7611    2.7035 N.ar    1  LIG11      -0.3597
     16 N           5.2834    1.4809    3.0181 N.ar    1  LIG11      -0.0878
     17 C           2.7773    3.5024   -2.2200 C.3     1  LIG11      -0.0201
     18 C           1.5178    3.0739   -1.4950 C.ar    1  LIG11      -0.0266
     19 C           3.9372    2.5382   -1.9667 C.3     1  LIG11      -0.0586
     20 C           3.1674    4.9384   -1.8599 C.3     1  LIG11      -0.0586
     21 C          -0.7686    2.3986   -0.1702 C.ar    1  LIG11       0.1969
     22 C           0.3547    2.7857   -2.2211 C.ar    1  LIG11      -0.0535
     23 C           1.4497    2.9756   -0.1029 C.ar    1  LIG11       0.0332
     24 C          -0.8180    2.4504   -1.5540 C.ar    1  LIG11      -0.0160
     25 C          -1.4793   -0.5283    0.5350 C.ar    1  LIG11       0.1882
     26 C          -2.2712   -1.2143   -0.3647 C.ar    1  LIG11       0.2307
     27 C          -1.6039   -2.2277   -1.0252 C.ar    1  LIG11       0.2641
     28 C           0.4085   -1.6329   -0.0923 C.ar    1  LIG11       0.1659
     29 C           1.8738   -1.7671   -0.0245 C.ar    1  LIG11       0.0227
     30 C          -4.2316   -0.7440   -1.6443 C.ar    1  LIG11       0.1702
     31 C           2.6467   -0.9146    0.7851 C.ar    1  LIG11      -0.0252
     32 C           2.5613   -2.7328   -0.7699 C.ar    1  LIG11      -0.0328
     33 C          -3.2203   -3.9345   -1.3427 C.3     1  LIG11       0.1143
     34 C          -5.6295   -0.8945   -1.6832 C.ar    1  LIG11       0.1621
     35 C           4.0321   -1.0529    0.8249 C.ar    1  LIG11       0.0708
     36 C          -3.5483   -0.3953   -2.8202 C.ar    1  LIG11      -0.0157
     37 C           3.9402   -2.8070   -0.6782 C.ar    1  LIG11       0.0289
     38 C          -2.7924   -4.7579   -0.1274 C.3     1  LIG11       0.0783
     39 C          -6.3012   -0.7693   -2.9065 C.ar    1  LIG11      -0.0163
     40 C          -4.2333   -0.2645   -4.0305 C.ar    1  LIG11      -0.0581
     41 C          -5.6089   -0.4591   -4.0755 C.ar    1  LIG11      -0.0581
     42 C           4.8398   -0.1659    1.6668 C.ar    1  LIG11       0.0207
     43 C          -6.0606   -0.8320    0.6633 C.3     1  LIG11       0.0790
     44 H          -2.7040   -4.5629    1.8096 H       1  LIG11       0.2095
     45 H          -1.2676    0.6013    2.1897 H       1  LIG11       0.1754
     46 H           7.2826    0.9839    3.0794 H       1  LIG11       0.1651
     47 H           2.5777    3.4869   -3.3001 H       1  LIG11       0.0344
     48 H           4.2419    2.5300   -0.9148 H       1  LIG11       0.0235
     49 H           3.6618    1.5146   -2.2439 H       1  LIG11       0.0235
     50 H           4.8098    2.8238   -2.5646 H       1  LIG11       0.0235
     51 H           3.4548    5.0323   -0.8071 H       1  LIG11       0.0235
     52 H           4.0153    5.2710   -2.4683 H       1  LIG11       0.0235
     53 H           2.3354    5.6285   -2.0415 H       1  LIG11       0.0235
     54 H           0.3505    2.8397   -3.3077 H       1  LIG11       0.0622
     55 H           2.3136    3.1922    0.5222 H       1  LIG11       0.0833
     56 H          -1.7326    2.2498   -2.0997 H       1  LIG11       0.0653
     57 H           2.1638   -0.1436    1.3817 H       1  LIG11       0.0646
     58 H           2.0308   -3.4231   -1.4211 H       1  LIG11       0.0640
     59 H          -4.1214   -3.3577   -1.1262 H       1  LIG11       0.0720
     60 H          -3.4810   -4.6310   -2.1478 H       1  LIG11       0.0720
     61 H          -2.4749   -0.2367   -2.8260 H       1  LIG11       0.0655
     62 H           4.5004   -3.5455   -1.2452 H       1  LIG11       0.0830
     63 H          -1.7678   -5.1256   -0.2309 H       1  LIG11       0.0591
     64 H          -3.4757   -5.6041   -0.0022 H       1  LIG11       0.0591
     65 H          -7.3791   -0.9103   -2.9416 H       1  LIG11       0.0655
     66 H          -3.6897   -0.0181   -4.9392 H       1  LIG11       0.0619
     67 H          -6.1460   -0.3651   -5.0157 H       1  LIG11       0.0619
     68 H          -6.9563   -0.8146    1.2925 H       1  LIG11       0.0660
     69 H          -5.3803   -1.5732    1.0944 H       1  LIG11       0.0660
     70 H          -5.6286    0.1740    0.6827 H       1  LIG11       0.0660
@<TRIPOS>BOND
     1     1    21    1
     2     1     8    1
     3     1     4    2
     4     1     3    2
     5     2    26    1
     6     2    30    1
     7     5    27    1
     8     5    33    1
     9     6    34    1
    10     6    43    1
    11     7    38    1
    12     8    25    1
    13     9    23   ar
    14     9    21   ar
    15    10    25   ar
    16    10    28   ar
    17    11    27   ar
    18    11    28   ar
    19    12    37   ar
    20    12    35   ar
    21    13    15   ar
    22    13    42   ar
    23    14    42   ar
    24    14    16   ar
    25    15    16   ar
    26    17    18    1
    27    17    20    1
    28    17    19    1
    29    18    23   ar
    30    18    22   ar
    31    21    24   ar
    32    22    24   ar
    33    25    26   ar
    34    26    27   ar
    35    28    29    1
    36    29    31   ar
    37    29    32   ar
    38    30    36   ar
    39    30    34   ar
    40    31    35   ar
    41    32    37   ar
    42    33    38    1
    43    34    39   ar
    44    35    42    1
    45    36    40   ar
    46    39    41   ar
    47    40    41   ar
    48     7    44    1
    49     8    45    1
    50    15    46    1
    51    17    47    1
    52    19    48    1
    53    19    49    1
    54    19    50    1
    55    20    51    1
    56    20    52    1
    57    20    53    1
    58    22    54    1
    59    23    55    1
    60    24    56    1
    61    31    57    1
    62    32    58    1
    63    33    59    1
    64    33    60    1
    65    36    61    1
    66    37    62    1
    67    38    63    1
    68    38    64    1
    69    39    65    1
    70    40    66    1
    71    41    67    1
    72    43    68    1
    73    43    69    1
    74    43    70    1
@<TRIPOS>MOLECULE
16219006
 85 88 0 0 0
SMALL
GASTEIGER

@<TRIPOS>ATOM
      1 O           4.1785   -1.0660    2.2381 O.2     1  PRO11      -0.2738
      2 O           2.8445    0.8379   -1.2662 O.2     5  ASP55      -0.2735
      3 O           2.0511   -2.5342   -1.9245 O.2     2  VAL22      -0.2738
      4 O          -0.4740    2.9567    1.3006 O.2     4  TRP44      -0.2738
      5 O          -0.3287   -1.0115    1.7341 O.2     3  LEU33      -0.2738
      6 OD1         2.6374    5.5991   -1.4086 O.co2   5  ASP55      -0.5497
      7 OD2         4.0709    3.9194   -1.9801 O.co2   5  ASP55      -0.5497
      8 N           3.3761    1.7612    0.7389 N.am    1  PRO11      -0.2884
      9 N           4.0578   -1.2368   -0.0418 N.am    2  VAL22      -0.3022
     10 N           0.3399    2.0513   -0.6507 N.am    5  ASP55      -0.3021
     11 N           1.2010   -2.7053    0.1935 N.am    3  LEU33      -0.3025
     12 N          -1.2032   -0.1989   -0.2216 N.am    4  TRP44      -0.3022
     13 NE1        -5.7397   -0.5376    0.0329 N.ar    4  TRP44      -0.3604
     14 CA          4.5873    0.9583    0.9061 C.3     1  PRO11       0.1023
     15 CB          5.2974    1.5888    2.1096 C.3     1  PRO11      -0.0243
     16 CG          4.1689    2.2517    2.8899 C.3     1  PRO11      -0.0350
     17 CD          3.2531    2.7568    1.7890 C.3     1  PRO11       0.0156
     18 C           4.2607   -0.5377    1.1308 C.2     1  PRO11       0.2342
     19 C           2.6940    1.7668   -0.4584 C.2     5  ASP55       0.2369
     20 CA          3.6386   -2.6337   -0.0733 C.3     2  VAL22       0.1017
     21 CA          1.5889    2.8310   -0.6778 C.3     5  ASP55       0.1047
     22 CB          4.6242   -3.5001   -0.8877 C.3     2  VAL22      -0.0197
     23 CA         -0.1720   -2.4285   -0.2202 C.3     3  LEU33       0.0996
     24 C           2.2365   -2.6392   -0.7136 C.2     2  VAL22       0.2342
     25 CB          1.7520    3.5103   -2.0264 C.3     5  ASP55       0.0138
     26 CA         -1.6535    1.0574    0.3860 C.3     4  TRP44       0.1034
     27 CB         -1.0909   -3.5964    0.1576 C.3     3  LEU33      -0.0236
     28 CG         -2.5561   -3.4428   -0.2999 C.3     3  LEU33      -0.0446
     29 C          -0.5069    2.0807    0.4389 C.2     4  TRP44       0.2343
     30 CB         -2.8256    1.6806   -0.3847 C.3     4  TRP44       0.0013
     31 C          -0.5658   -1.1525    0.5355 C.2     3  LEU33       0.2340
     32 CG1         4.1405   -4.9540   -0.9745 C.3     2  VAL22      -0.0605
     33 CG2         6.0249   -3.4795   -0.2646 C.3     2  VAL22      -0.0605
     34 CG         -4.0048    0.7577   -0.4990 C.ar    4  TRP44      -0.0201
     35 CG          2.9357    4.4346   -1.7927 C.2     5  ASP55       0.0440
     36 CD1        -2.6878   -3.3649   -1.8216 C.3     3  LEU33      -0.0626
     37 CD2        -3.3889   -4.6153    0.2259 C.3     3  LEU33      -0.0626
     38 CD2        -4.5209    0.1639   -1.6960 C.ar    4  TRP44       0.0029
     39 CD1        -4.7916    0.3056    0.5430 C.ar    4  TRP44       0.0060
     40 CE2        -5.6004   -0.6415   -1.3309 C.ar    4  TRP44       0.0467
     41 CE3        -4.1667    0.2327   -3.0593 C.ar    4  TRP44      -0.0523
     42 CZ2        -6.3431   -1.3814   -2.2589 C.ar    4  TRP44      -0.0378
     43 CZ3        -4.8995   -0.4994   -4.0007 C.ar    4  TRP44      -0.0611
     44 CH2        -5.9716   -1.2942   -3.6034 C.ar    4  TRP44      -0.0598
     45 H           3.8175   -0.6566   -0.8551 H       2  VAL22       0.1495
     46 H           0.3764    1.1904   -1.1830 H       5  ASP55       0.1495
     47 H           1.4217   -2.4816    1.1628 H       3  LEU33       0.1495
     48 H          -1.3536   -0.3467   -1.2118 H       4  TRP44       0.1495
     49 HE1        -6.4432   -1.0179    0.5757 H       4  TRP44       0.1653
     50 HA          5.2169    1.0438    0.0115 H       1  PRO11       0.0597
     51 HB1         5.9932    2.3621    1.7603 H       1  PRO11       0.0288
     52 HB2         5.8649    0.8782    2.7175 H       1  PRO11       0.0288
     53 HG1         4.5169    3.0523    3.5484 H       1  PRO11       0.0281
     54 HG2         3.6488    1.5048    3.5015 H       1  PRO11       0.0281
     55 HD1         2.2168    2.8464    2.1239 H       1  PRO11       0.0465
     56 HD2         3.5955    3.7199    1.3946 H       1  PRO11       0.0465
     57 HA          3.5696   -3.0256    0.9482 H       2  VAL22       0.0597
     58 HA          1.5652    3.5680    0.1271 H       5  ASP55       0.0598
     59 HB          4.7041   -3.1058   -1.9096 H       2  VAL22       0.0318
     60 HA         -0.1991   -2.2457   -1.2976 H       3  LEU33       0.0594
     61 HB1         0.8604    4.0870   -2.2971 H       5  ASP55       0.0348
     62 HB2         1.9591    2.8064   -2.8399 H       5  ASP55       0.0348
     63 HA         -1.9460    0.8453    1.4220 H       4  TRP44       0.0598
     64 HB1        -1.0741   -3.7291    1.2483 H       3  LEU33       0.0290
     65 HB2        -0.6784   -4.5230   -0.2643 H       3  LEU33       0.0290
     66 HG         -2.9736   -2.5256    0.1312 H       3  LEU33       0.0296
     67 HB1        -2.4948    1.9815   -1.3868 H       4  TRP44       0.0337
     68 HB2        -3.1470    2.6039    0.1147 H       4  TRP44       0.0337
     69 HG11        4.0067   -5.3863    0.0228 H       2  VAL22       0.0233
     70 HG12        4.8629   -5.5724   -1.5176 H       2  VAL22       0.0233
     71 HG13        3.1869   -5.0288   -1.5059 H       2  VAL22       0.0233
     72 HG21        6.0028   -3.8382    0.7702 H       2  VAL22       0.0233
     73 HG22        6.4476   -2.4699   -0.2665 H       2  VAL22       0.0233
     74 HG23        6.7098   -4.1216   -0.8293 H       2  VAL22       0.0233
     75 HD11       -2.2069   -4.2213   -2.3060 H       3  LEU33       0.0232
     76 HD12       -2.2350   -2.4513   -2.2167 H       3  LEU33       0.0232
     77 HD13       -3.7410   -3.3589   -2.1206 H       3  LEU33       0.0232
     78 HD21       -3.0366   -5.5686   -0.1828 H       3  LEU33       0.0232
     79 HD22       -4.4426   -4.4974   -0.0490 H       3  LEU33       0.0232
     80 HD23       -3.3352   -4.6730    1.3182 H       3  LEU33       0.0232
     81 HD1        -4.7448    0.5040    1.6060 H       4  TRP44       0.0810
     82 HE3        -3.3375    0.8538   -3.3860 H       4  TRP44       0.0624
     83 HZ2        -7.1789   -2.0010   -1.9520 H       4  TRP44       0.0638
     84 HZ3        -4.6280   -0.4414   -5.0520 H       4  TRP44       0.0618
     85 HH2        -6.5294   -1.8542   -4.3503 H       4  TRP44       0.0618
@<TRIPOS>BOND
     1     1    18    2
     2     2    19    2
     3     3    24    2
     4     4    29    2
     5     5    31    2
     6     6    35   ar
     7     7    35   ar
     8     8    14    1
     9     8    17    1
    10     8    19   am
    11     9    18   am
    12     9    20    1
    13    10    21    1
    14    10    29   am
    15    11    23    1
    16    11    24   am
    17    12    26    1
    18    12    31   am
    19    13    39   ar
    20    13    40   ar
    21    14    15    1
    22    14    18    1
    23    15    16    1
    24    16    17    1
    25    19    21    1
    26    20    22    1
    27    20    24    1
    28    21    25    1
    29    22    32    1
    30    22    33    1
    31    23    27    1
    32    23    31    1
    33    25    35    1
    34    26    29    1
    35    26    30    1
    36    27    28    1
    37    28    36    1
    38    28    37    1
    39    30    34    1
    40    34    38   ar
    41    34    39   ar
    42    38    40   ar
    43    38    41   ar
    44    40    42   ar
    45    41    43   ar
    46    42    44   ar
    47    43    44   ar
    48     9    45    1
    49    10    46    1
    50    11    47    1
    51    12    48    1
    52    13    49    1
    53    14    50    1
    54    15    51    1
    55    15    52    1
    56    16    53    1
    57    16    54    1
    58    17    55    1
    59    17    56    1
    60    20    57    1
    61    21    58    1
    62    22    59    1
    63    23    60    1
    64    25    61    1
    65    25    62    1
    66    26    63    1
    67    27    64    1
    68    27    65    1
    69    28    66    1
    70    30    67    1
    71    30    68    1
    72    32    69    1
    73    32    70    1
    74    32    71    1
    75    33    72    1
    76    33    73    1
    77    33    74    1
    78    36    75    1
    79    36    76    1
    80    36    77    1
    81    37    78    1
    82    37    79    1
    83    37    80    1
    84    39    81    1
    85    41    82    1
    86    42    83    1
    87    43    84    1
    88    44    85    1
