@<TRIPOS>MOLECULE
123882
 117 122 0 0 0
SMALL
GASTEIGER

@<TRIPOS>ATOM
      1 S           6.7639    3.0655    2.6621 S.2     3  UNK33      -0.0993
      2 O          -3.1644    3.0040   -0.8927 O.2     1  UNK11      -0.2755
      3 O           4.1956   -4.5601    1.1028 O.2     4  LEU44      -0.2738
      4 O          -0.3564    1.8482    1.2155 O.2     1  UNK11      -0.2737
      5 O           1.3260   -1.5750    1.0513 O.2     5  TRP55      -0.2738
      6 O          -2.3959   -1.5289    0.9727 O.2     6  ASP66      -0.2738
      7 O           6.1300   -0.4542    2.2900 O.2     3  UNK33      -0.2734
      8 O           3.3044    0.8508   -0.8892 O.2     2  ASP22      -0.2737
      9 OD1        -0.3349   -5.8539   -0.1816 O.co2   6  ASP66      -0.5497
     10 OD2        -1.1431   -5.4194   -2.2795 O.co2   6  ASP66      -0.5497
     11 OD1         0.3113    4.8810   -1.5798 O.co2   2  ASP22      -0.5497
     12 OD2         2.3380    5.9086   -1.7296 O.co2   2  ASP22      -0.5497
     13 N          -2.6560    3.2696   -3.1147 N.am    1  UNK11      -0.2984
     14 N          -2.0330    4.9550   -5.4615 N.pl3   1  UNK11      -0.3269
     15 N          -1.0505   -0.6640   -0.6868 N.am    1  UNK11      -0.3020
     16 N           3.3128   -2.7687    2.2358 N.am    5  TRP55      -0.3022
     17 N           4.5959   -0.9315    0.6889 N.am    4  LEU44      -0.3022
     18 N          -0.0293   -3.4162    1.1188 N.am    6  ASP66      -0.3021
     19 N           0.6130    1.8783   -0.8556 N.am    2  ASP22      -0.3021
     20 N           3.4523    1.8391    1.1554 N.am    3  UNK33      -0.2984
     21 NE1        -1.7975   -4.1263    4.8134 N.ar    5  TRP55      -0.3604
     22 C          -2.3037    2.7153   -4.4252 C.3     1  UNK11       0.0304
     23 C          -2.8995    4.7158   -3.0778 C.3     1  UNK11       0.0304
     24 C          -2.7218    3.6530   -5.5718 C.3     1  UNK11       0.0280
     25 C          -1.9827    5.4863   -4.0534 C.3     1  UNK11       0.0280
     26 C          -2.6374    2.5649   -1.9229 C.2     1  UNK11       0.2179
     27 C          -2.0204    1.1840   -1.9622 C.3     1  UNK11       0.0510
     28 C          -1.5544    0.7126   -0.5835 C.3     1  UNK11       0.1076
     29 CA          5.0117   -2.3320    0.5219 C.3     4  LEU44       0.0997
     30 CB          5.2246   -2.6923   -0.9634 C.3     4  LEU44      -0.0236
     31 CA          2.0036   -3.3685    2.5444 C.3     5  TRP55       0.1034
     32 C          -0.8706    5.2183   -6.2124 C.ar    1  UNK11       0.0298
     33 CG          4.0243   -2.5169   -1.9235 C.3     4  LEU44      -0.0446
     34 CB          1.6101   -3.0196    3.9837 C.3     5  TRP55       0.0013
     35 C           4.1226   -3.3454    1.2763 C.2     4  LEU44       0.2340
     36 CA         -0.7591   -3.0162   -0.0831 C.3     6  ASP66       0.1045
     37 C          -0.4104    1.5689    0.0183 C.2     1  UNK11       0.2344
     38 CG          0.3647   -3.6770    4.4888 C.ar    5  TRP55      -0.0201
     39 C           1.0735   -2.6957    1.5079 C.2     5  TRP55       0.2343
     40 C          -1.4954   -1.6744    0.1490 C.2     6  ASP66       0.2343
     41 CA          1.7559    2.6814   -0.4378 C.3     2  ASP22       0.1045
     42 CD2         2.9418   -3.5786   -1.7416 C.3     4  LEU44      -0.0626
     43 CD1         4.5165   -2.5567   -3.3756 C.3     4  LEU44      -0.0626
     44 C           4.8424    1.4573    1.4101 C.3     3  UNK33       0.1311
     45 C          -0.1800    6.4373   -6.0598 C.ar    1  UNK11      -0.0407
     46 C          -0.3346    4.3287   -7.1583 C.ar    1  UNK11      -0.0407
     47 CD2         0.2500   -4.7826    5.3935 C.ar    5  TRP55       0.0029
     48 C           5.2144   -0.0620    1.5620 C.2     3  UNK33       0.2390
     49 CB         -1.8010   -4.0509   -0.4854 C.3     6  ASP66       0.0138
     50 CD1        -0.9263   -3.2796    4.1896 C.ar    5  TRP55       0.0060
     51 CE2        -1.1112   -5.0302    5.5863 C.ar    5  TRP55       0.0467
     52 C           2.8922    1.6947   -0.0901 C.2     2  ASP22       0.2345
     53 CB          2.2795    3.5724   -1.5605 C.3     2  ASP22       0.0138
     54 C           0.9972    6.7290   -6.7601 C.ar    1  UNK11      -0.0600
     55 C           0.8399    4.6152   -7.8711 C.ar    1  UNK11      -0.0600
     56 C           5.2874    2.1857    2.6638 C.ar    3  UNK33       0.0189
     57 CE3         1.1771   -5.5980    6.0750 C.ar    5  TRP55      -0.0523
     58 C           1.5114    5.8129   -7.6657 C.ar    1  UNK11      -0.0616
     59 CZ2        -1.5900   -6.0446    6.4246 C.ar    5  TRP55      -0.0378
     60 CG         -1.0197   -5.2248   -1.0398 C.2     6  ASP66       0.0440
     61 CZ3         0.7158   -6.6140    6.9235 C.ar    5  TRP55      -0.0611
     62 C           4.6657    2.2571    3.8994 C.ar    3  UNK33      -0.0493
     63 CH2        -0.6492   -6.8310    7.0940 C.ar    5  TRP55      -0.0598
     64 CG          1.5679    4.9119   -1.6187 C.2     2  ASP22       0.0440
     65 C           5.4085    3.0273    4.8402 C.ar    3  UNK33      -0.0544
     66 C           6.5769    3.5136    4.3002 C.ar    3  UNK33      -0.0240
     67 H          -0.0885   -0.7708   -0.9924 H       1  UNK11       0.1495
     68 H           3.2660   -1.7562    2.1360 H       5  TRP55       0.1495
     69 H           3.8493   -0.5623    0.0951 H       4  LEU44       0.1495
     70 H           0.0574   -4.4354    1.1978 H       6  ASP66       0.1495
     71 H           0.6704    1.4432   -1.7613 H       2  ASP22       0.1495
     72 H           3.0879    2.6107    1.7022 H       3  UNK33       0.1498
     73 HE1        -2.8030   -4.0834    4.7193 H       5  TRP55       0.1653
     74 H          -1.2188    2.5592   -4.4425 H       1  UNK11       0.0480
     75 H          -2.7932    1.7421   -4.5350 H       1  UNK11       0.0480
     76 H          -3.9495    4.8672   -3.3523 H       1  UNK11       0.0480
     77 H          -2.7671    5.1051   -2.0621 H       1  UNK11       0.0480
     78 H          -3.8014    3.8433   -5.5037 H       1  UNK11       0.0479
     79 H          -2.5945    3.1678   -6.5424 H       1  UNK11       0.0479
     80 H          -0.9585    5.4176   -3.6732 H       1  UNK11       0.0479
     81 H          -2.2859    6.5396   -4.0567 H       1  UNK11       0.0479
     82 H          -2.7860    0.4970   -2.3448 H       1  UNK11       0.0381
     83 H          -1.1891    1.1597   -2.6720 H       1  UNK11       0.0381
     84 H          -2.3916    0.7477    0.1223 H       1  UNK11       0.0599
     85 HA          5.9925   -2.4394    1.0045 H       4  LEU44       0.0594
     86 HB1         6.0421   -2.0546   -1.3281 H       4  LEU44       0.0290
     87 HB2         5.5902   -3.7249   -1.0377 H       4  LEU44       0.0290
     88 HA          2.0371   -4.4505    2.3740 H       5  TRP55       0.0598
     89 HG          3.5663   -1.5361   -1.7705 H       4  LEU44       0.0296
     90 HB1         2.4408   -3.2862    4.6505 H       5  TRP55       0.0337
     91 HB2         1.4950   -1.9312    4.0845 H       5  TRP55       0.0337
     92 HA         -0.0200   -2.8899   -0.8849 H       6  ASP66       0.0598
     93 HA          1.4906    3.2723    0.4457 H       2  ASP22       0.0598
     94 HD21        3.3504   -4.5891   -1.8436 H       4  LEU44       0.0232
     95 HD22        2.4651   -3.4991   -0.7653 H       4  LEU44       0.0232
     96 HD23        2.1506   -3.4588   -2.4904 H       4  LEU44       0.0232
     97 HD11        4.9763   -3.5217   -3.6137 H       4  LEU44       0.0232
     98 HD12        3.6862   -2.3953   -4.0721 H       4  LEU44       0.0232
     99 HD13        5.2568   -1.7708   -3.5588 H       4  LEU44       0.0232
    100 H           5.4215    1.8114    0.5454 H       3  UNK33       0.0651
    101 H          -0.5373    7.1879   -5.3593 H       1  UNK11       0.0636
    102 H          -0.7860    3.3638   -7.3529 H       1  UNK11       0.0636
    103 HB1        -2.4104   -4.3741    0.3661 H       6  ASP66       0.0348
    104 HB2        -2.4784   -3.6515   -1.2499 H       6  ASP66       0.0348
    105 HD1        -1.2995   -2.4842    3.5506 H       5  TRP55       0.0810
    106 HB1         3.3502    3.7689   -1.4099 H       2  ASP22       0.0348
    107 HB2         2.1849    3.0858   -2.5393 H       2  ASP22       0.0348
    108 H           1.5144    7.6652   -6.5699 H       1  UNK11       0.0618
    109 H           1.2356    3.8843   -8.5706 H       1  UNK11       0.0618
    110 HE3         2.2444   -5.4434    5.9440 H       5  TRP55       0.0624
    111 H           2.4352    6.0254   -8.1943 H       1  UNK11       0.0618
    112 HZ2        -2.6533   -6.2186    6.5479 H       5  TRP55       0.0638
    113 HZ3         1.4328   -7.2412    7.4456 H       5  TRP55       0.0618
    114 H           3.7209    1.7719    4.1186 H       3  UNK33       0.0626
    115 HH2        -0.9901   -7.6276    7.7505 H       5  TRP55       0.0618
    116 H           5.1027    3.2070    5.8631 H       3  UNK33       0.0623
    117 H           7.3323    4.1141    4.7859 H       3  UNK33       0.0693
@<TRIPOS>BOND
     1     1    56   ar
     2     1    66   ar
     3     2    26    2
     4     3    35    2
     5     4    37    2
     6     5    39    2
     7     6    40    2
     8     7    48    2
     9     8    52    2
    10     9    60   ar
    11    10    60   ar
    12    11    64   ar
    13    12    64   ar
    14    13    22    1
    15    13    23    1
    16    14    24    1
    17    14    25    1
    18    14    32    1
    19    15    28    1
    20    15    40   am
    21    16    35   am
    22    16    31    1
    23    17    48   am
    24    17    29    1
    25    18    39   am
    26    18    36    1
    27    19    37   am
    28    19    41    1
    29    20    52   am
    30    20    44    1
    31    21    50   ar
    32    21    51   ar
    33    22    24    1
    34    23    25    1
    35    26    27    1
    36    26    13   am
    37    28    37    1
    38    28    27    1
    39    29    35    1
    40    29    30    1
    41    30    33    1
    42    31    39    1
    43    31    34    1
    44    32    45   ar
    45    32    46   ar
    46    33    43    1
    47    33    42    1
    48    34    38    1
    49    36    40    1
    50    36    49    1
    51    38    47   ar
    52    38    50   ar
    53    41    52    1
    54    41    53    1
    55    44    48    1
    56    44    56    1
    57    45    54   ar
    58    46    55   ar
    59    47    57   ar
    60    47    51   ar
    61    49    60    1
    62    51    59   ar
    63    53    64    1
    64    54    58   ar
    65    55    58   ar
    66    56    62   ar
    67    57    61   ar
    68    59    63   ar
    69    61    63   ar
    70    62    65   ar
    71    65    66   ar
    72    15    67    1
    73    16    68    1
    74    17    69    1
    75    18    70    1
    76    19    71    1
    77    20    72    1
    78    21    73    1
    79    22    74    1
    80    22    75    1
    81    23    76    1
    82    23    77    1
    83    24    78    1
    84    24    79    1
    85    25    80    1
    86    25    81    1
    87    27    82    1
    88    27    83    1
    89    28    84    1
    90    29    85    1
    91    30    86    1
    92    30    87    1
    93    31    88    1
    94    33    89    1
    95    34    90    1
    96    34    91    1
    97    36    92    1
    98    41    93    1
    99    42    94    1
   100    42    95    1
   101    42    96    1
   102    43    97    1
   103    43    98    1
   104    43    99    1
   105    44   100    1
   106    45   101    1
   107    46   102    1
   108    49   103    1
   109    49   104    1
   110    50   105    1
   111    53   106    1
   112    53   107    1
   113    54   108    1
   114    55   109    1
   115    57   110    1
   116    58   111    1
   117    59   112    1
   118    61   113    1
   119    62   114    1
   120    63   115    1
   121    65   116    1
   122    66   117    1
@<TRIPOS>MOLECULE
16219006
 85 88 0 0 0
SMALL
GASTEIGER

@<TRIPOS>ATOM
      1 O           4.2042   -0.9680    2.2467 O.2     1  PRO11      -0.2738
      2 O           3.0868    1.0637   -1.3070 O.2     5  ASP55      -0.2735
      3 O           1.9393   -1.9514   -1.8012 O.2     2  VAL22      -0.2738
      4 O          -0.5542    2.9015    1.2439 O.2     4  TRP44      -0.2738
      5 O          -0.7058   -1.2577    1.7843 O.2     3  LEU33      -0.2738
      6 OD1         3.2524    5.0530   -0.8202 O.co2   5  ASP55      -0.5497
      7 OD2         3.7040    4.4491   -2.9704 O.co2   5  ASP55      -0.5497
      8 N           3.4494    1.8623    0.7798 N.am    1  PRO11      -0.2884
      9 N           4.1362   -1.0964   -0.0398 N.am    2  VAL22      -0.3022
     10 N           0.4398    2.0215   -0.6291 N.am    5  ASP55      -0.3021
     11 N           1.1863   -2.7866    0.1849 N.am    3  LEU33      -0.3025
     12 N          -1.1267   -0.3148   -0.2699 N.am    4  TRP44      -0.3022
     13 NE1        -2.0201    1.6552   -4.1577 N.ar    4  TRP44      -0.3604
     14 CA          4.6663    1.0738    0.9659 C.3     1  PRO11       0.1023
     15 CB          5.3264    1.6819    2.2065 C.3     1  PRO11      -0.0243
     16 CG          4.1581    2.2880    2.9758 C.3     1  PRO11      -0.0350
     17 CD          3.2555    2.8046    1.8682 C.3     1  PRO11       0.0156
     18 C           4.3255   -0.4224    1.1515 C.2     1  PRO11       0.2342
     19 C           2.8142    1.9086   -0.4412 C.2     5  ASP55       0.2369
     20 CA          3.6100   -2.4533   -0.0869 C.3     2  VAL22       0.1017
     21 CA          1.6300    2.8857   -0.6287 C.3     5  ASP55       0.1047
     22 CB          4.5402   -3.4069   -0.8692 C.3     2  VAL22      -0.0197
     23 CA         -0.2054   -2.5805   -0.1863 C.3     3  LEU33       0.0996
     24 C           2.1856   -2.3706   -0.6719 C.2     2  VAL22       0.2342
     25 CB          1.7527    3.6132   -1.9571 C.3     5  ASP55       0.0138
     26 CA         -1.6103    0.9659    0.2567 C.3     4  TRP44       0.1034
     27 CB         -1.0759   -3.7844    0.1910 C.3     3  LEU33      -0.0236
     28 CG         -0.7271   -5.0828   -0.5665 C.3     3  LEU33      -0.0446
     29 C          -0.4989    2.0300    0.3766 C.2     4  TRP44       0.2343
     30 CB         -2.8067    1.4940   -0.5526 C.3     4  TRP44       0.0013
     31 C          -0.6995   -1.3278    0.5570 C.2     3  LEU33       0.2340
     32 CG1         4.7962   -3.0001   -2.3233 C.3     2  VAL22      -0.0605
     33 CG2         4.0256   -4.8493   -0.8142 C.3     2  VAL22      -0.0605
     34 CG         -2.5173    1.8268   -1.9895 C.ar    4  TRP44      -0.0201
     35 CG          3.0234    4.4531   -1.9082 C.2     5  ASP55       0.0440
     36 CD1        -1.6720   -6.2036   -0.1269 C.3     3  LEU33      -0.0626
     37 CD2        -0.7970   -4.9198   -2.0868 C.3     3  LEU33      -0.0626
     38 CD2        -2.4202    3.1433   -2.5502 C.ar    4  TRP44       0.0029
     39 CD1        -2.3092    0.9373   -3.0279 C.ar    4  TRP44       0.0060
     40 CE2        -2.1143    3.0018   -3.9032 C.ar    4  TRP44       0.0467
     41 CE3        -2.5524    4.4460   -2.0269 C.ar    4  TRP44      -0.0523
     42 CZ2        -1.9336    4.0942   -4.7598 C.ar    4  TRP44      -0.0378
     43 CZ3        -2.3856    5.5499   -2.8710 C.ar    4  TRP44      -0.0611
     44 CH2        -2.0796    5.3736   -4.2178 C.ar    4  TRP44      -0.0598
     45 H           3.9173   -0.4921   -0.8425 H       2  VAL22       0.1495
     46 H           0.4679    1.2596   -1.2910 H       5  ASP55       0.1495
     47 H           1.3917   -2.7501    1.1803 H       3  LEU33       0.1495
     48 H          -0.8303   -0.3363   -1.2378 H       4  TRP44       0.1495
     49 HE1        -1.7757    1.2630   -5.0563 H       4  TRP44       0.1653
     50 HA          5.3233    1.1769    0.0937 H       1  PRO11       0.0597
     51 HB1         6.0103    2.4836    1.9011 H       1  PRO11       0.0288
     52 HB2         5.8949    0.9647    2.8057 H       1  PRO11       0.0288
     53 HG1         4.4668    3.0757    3.6684 H       1  PRO11       0.0281
     54 HG2         3.6430    1.5087    3.5496 H       1  PRO11       0.0281
     55 HD1         2.2067    2.8414    2.1730 H       1  PRO11       0.0465
     56 HD2         3.5744    3.7956    1.5315 H       1  PRO11       0.0465
     57 HA          3.5383   -2.8350    0.9389 H       2  VAL22       0.0597
     58 HA          1.5471    3.5951    0.1956 H       5  ASP55       0.0598
     59 HB          5.5154   -3.3913   -0.3630 H       2  VAL22       0.0318
     60 HA         -0.2894   -2.3975   -1.2617 H       3  LEU33       0.0594
     61 HB1         0.8938    4.2731   -2.1223 H       5  ASP55       0.0348
     62 HB2         1.7924    2.9102   -2.7986 H       5  ASP55       0.0348
     63 HA         -1.9573    0.7821    1.2820 H       4  TRP44       0.0598
     64 HB1        -2.1286   -3.5299    0.0080 H       3  LEU33       0.0290
     65 HB2        -0.9928   -3.9730    1.2701 H       3  LEU33       0.0290
     66 HG          0.2946   -5.3844   -0.3032 H       3  LEU33       0.0296
     67 HB1        -3.2104    2.3819   -0.0503 H       4  TRP44       0.0337
     68 HB2        -3.6090    0.7442   -0.5338 H       4  TRP44       0.0337
     69 HG11        3.8969   -3.0923   -2.9393 H       2  VAL22       0.0233
     70 HG12        5.5601   -3.6483   -2.7678 H       2  VAL22       0.0233
     71 HG13        5.1608   -1.9710   -2.3941 H       2  VAL22       0.0233
     72 HG21        3.0743   -4.9595   -1.3455 H       2  VAL22       0.0233
     73 HG22        3.8769   -5.1718    0.2215 H       2  VAL22       0.0233
     74 HG23        4.7459   -5.5342   -1.2748 H       2  VAL22       0.0233
     75 HD11       -2.7113   -5.9669   -0.3783 H       3  LEU33       0.0232
     76 HD12       -1.6112   -6.3627    0.9546 H       3  LEU33       0.0232
     77 HD13       -1.4115   -7.1469   -0.6182 H       3  LEU33       0.0232
     78 HD21       -1.7626   -4.5072   -2.3982 H       3  LEU33       0.0232
     79 HD22       -0.6628   -5.8841   -2.5891 H       3  LEU33       0.0232
     80 HD23       -0.0064   -4.2573   -2.4540 H       3  LEU33       0.0232
     81 HD1        -2.3163   -0.1433   -3.0596 H       4  TRP44       0.0810
     82 HE3        -2.7636    4.6016   -0.9735 H       4  TRP44       0.0624
     83 HZ2        -1.6706    3.9608   -5.8034 H       4  TRP44       0.0638
     84 HZ3        -2.4732    6.5539   -2.4631 H       4  TRP44       0.0618
     85 HH2        -1.9296    6.2438   -4.8521 H       4  TRP44       0.0618
@<TRIPOS>BOND
     1     1    18    2
     2     2    19    2
     3     3    24    2
     4     4    29    2
     5     5    31    2
     6     6    35   ar
     7     7    35   ar
     8     8    14    1
     9     8    17    1
    10     8    19   am
    11     9    18   am
    12     9    20    1
    13    10    21    1
    14    10    29   am
    15    11    23    1
    16    11    24   am
    17    12    26    1
    18    12    31   am
    19    13    39   ar
    20    13    40   ar
    21    14    15    1
    22    14    18    1
    23    15    16    1
    24    16    17    1
    25    19    21    1
    26    20    22    1
    27    20    24    1
    28    21    25    1
    29    22    32    1
    30    22    33    1
    31    23    27    1
    32    23    31    1
    33    25    35    1
    34    26    29    1
    35    26    30    1
    36    27    28    1
    37    28    36    1
    38    28    37    1
    39    30    34    1
    40    34    38   ar
    41    34    39   ar
    42    38    40   ar
    43    38    41   ar
    44    40    42   ar
    45    41    43   ar
    46    42    44   ar
    47    43    44   ar
    48     9    45    1
    49    10    46    1
    50    11    47    1
    51    12    48    1
    52    13    49    1
    53    14    50    1
    54    15    51    1
    55    15    52    1
    56    16    53    1
    57    16    54    1
    58    17    55    1
    59    17    56    1
    60    20    57    1
    61    21    58    1
    62    22    59    1
    63    23    60    1
    64    25    61    1
    65    25    62    1
    66    26    63    1
    67    27    64    1
    68    27    65    1
    69    28    66    1
    70    30    67    1
    71    30    68    1
    72    32    69    1
    73    32    70    1
    74    32    71    1
    75    33    72    1
    76    33    73    1
    77    33    74    1
    78    36    75    1
    79    36    76    1
    80    36    77    1
    81    37    78    1
    82    37    79    1
    83    37    80    1
    84    39    81    1
    85    41    82    1
    86    42    83    1
    87    43    84    1
    88    44    85    1
