@<TRIPOS>MOLECULE
9843631
 45 48 0 0 0
SMALL
GASTEIGER

@<TRIPOS>ATOM
      1 S           3.2061   -1.1129   -0.1920 S.O2    1  LIG11       0.0752
      2 O          -0.2778   -2.0883    0.3582 O.2     1  LIG11      -0.3377
      3 O           4.2906   -2.0670   -0.2964 O.2     1  LIG11      -0.1499
      4 O           2.5460   -0.6187   -1.3791 O.2     1  LIG11      -0.1499
      5 O          -1.1477    4.3542   -3.2327 O.2     1  LIG11      -0.4436
      6 N           2.0648   -1.7371    0.9008 N.pl3   1  LIG11      -0.1831
      7 N          -1.0775   -2.9995   -0.2981 N.ar    1  LIG11      -0.0810
      8 N          -2.5107    2.6894   -2.5474 N.ar    1  LIG11      -0.2175
      9 C           3.8010    0.2800    0.7685 C.ar    1  LIG11       0.1162
     10 C           3.1915    1.5521    0.7528 C.ar    1  LIG11       0.0087
     11 C           2.0365    1.9497   -0.0714 C.ar    1  LIG11      -0.0160
     12 C           4.9354    0.0353    1.5688 C.ar    1  LIG11      -0.0345
     13 C           1.0229   -2.4778    0.2842 C.ar    1  LIG11       0.2399
     14 C           3.7542    2.5433    1.5884 C.ar    1  LIG11      -0.0521
     15 C           1.0995   -3.6966   -0.3539 C.ar    1  LIG11       0.0350
     16 C           0.7429    1.4645    0.1629 C.ar    1  LIG11      -0.0533
     17 C           2.2028    2.8984   -1.0951 C.ar    1  LIG11      -0.0533
     18 C           5.4677    1.0397    2.3726 C.ar    1  LIG11      -0.0599
     19 C           4.8729    2.2934    2.3872 C.ar    1  LIG11      -0.0611
     20 C          -0.1629    2.8135   -1.6569 C.ar    1  LIG11       0.0369
     21 C          -0.2503   -3.9579   -0.7294 C.ar    1  LIG11       0.0854
     22 C          -0.3351    1.8710   -0.6354 C.ar    1  LIG11      -0.0489
     23 C           1.1197    3.3313   -1.8702 C.ar    1  LIG11      -0.0489
     24 C           2.2709   -4.5763   -0.5673 C.3     1  LIG11      -0.0330
     25 C          -0.7932   -5.1277   -1.4593 C.3     1  LIG11      -0.0188
     26 C          -1.3077    3.2283   -2.4623 C.ar    1  LIG11       0.2271
     27 C          -2.3516    4.5103   -3.8495 C.ar    1  LIG11       0.1125
     28 C          -3.1723    3.4910   -3.4414 C.ar    1  LIG11       0.0663
     29 H           1.6916   -1.0025    1.4970 H       1  LIG11       0.1768
     30 H           5.4141   -0.9434    1.5714 H       1  LIG11       0.0637
     31 H           3.3131    3.5402    1.6174 H       1  LIG11       0.0624
     32 H           0.5405    0.7669    0.9680 H       1  LIG11       0.0624
     33 H           3.1885    3.3137   -1.3002 H       1  LIG11       0.0624
     34 H           6.3443    0.8416    2.9849 H       1  LIG11       0.0618
     35 H           5.2808    3.0835    3.0135 H       1  LIG11       0.0618
     36 H          -1.3219    1.4472   -0.4504 H       1  LIG11       0.0625
     37 H           1.2947    4.0681   -2.6513 H       1  LIG11       0.0625
     38 H           3.0746   -4.3597    0.1420 H       1  LIG11       0.0280
     39 H           1.9935   -5.6261   -0.4193 H       1  LIG11       0.0280
     40 H           2.6574   -4.4644   -1.5843 H       1  LIG11       0.0280
     41 H          -1.7815   -4.9141   -1.8798 H       1  LIG11       0.0294
     42 H          -0.1330   -5.4102   -2.2854 H       1  LIG11       0.0294
     43 H          -0.8871   -5.9838   -0.7837 H       1  LIG11       0.0294
     44 H          -2.4492    5.3549   -4.5149 H       1  LIG11       0.1046
     45 H          -4.1935    3.2939   -3.7353 H       1  LIG11       0.0862
@<TRIPOS>BOND
     1     1     3    2
     2     1     4    2
     3     1     6    1
     4     1     9    1
     5     2     7   ar
     6     2    13   ar
     7     5    26   ar
     8     5    27   ar
     9     6    13    1
    10     7    21   ar
    11     8    26   ar
    12     8    28   ar
    13     9    10   ar
    14     9    12   ar
    15    10    11    1
    16    10    14   ar
    17    11    16   ar
    18    11    17   ar
    19    12    18   ar
    20    13    15   ar
    21    14    19   ar
    22    15    21   ar
    23    15    24    1
    24    16    22   ar
    25    17    23   ar
    26    18    19   ar
    27    20    22   ar
    28    20    23   ar
    29    20    26    1
    30    21    25    1
    31    27    28   ar
    32     6    29    1
    33    12    30    1
    34    14    31    1
    35    16    32    1
    36    17    33    1
    37    18    34    1
    38    19    35    1
    39    22    36    1
    40    23    37    1
    41    24    38    1
    42    24    39    1
    43    24    40    1
    44    25    41    1
    45    25    42    1
    46    25    43    1
    47    27    44    1
    48    28    45    1
@<TRIPOS>MOLECULE
16219006
 85 88 0 0 0
SMALL
GASTEIGER

@<TRIPOS>ATOM
      1 O           4.2213   -0.9862    2.2555 O.2     1  PRO11      -0.2738
      2 O           3.2552    1.1050   -1.3622 O.2     5  ASP55      -0.2735
      3 O           1.9436   -1.8371   -1.7513 O.2     2  VAL22      -0.2738
      4 O          -0.5489    3.0042    1.1337 O.2     4  TRP44      -0.2738
      5 O          -0.6518   -1.2507    1.8135 O.2     3  LEU33      -0.2738
      6 OD1         3.0713    4.9368   -3.3284 O.co2   5  ASP55      -0.5497
      7 OD2         3.5757    4.6640   -1.1217 O.co2   5  ASP55      -0.5497
      8 N           3.4851    1.8359    0.7699 N.am    1  PRO11      -0.2884
      9 N           4.1827   -1.1025   -0.0323 N.am    2  VAL22      -0.3022
     10 N           0.5350    1.9409   -0.5870 N.am    5  ASP55      -0.3021
     11 N           1.2039   -2.7992    0.1820 N.am    3  LEU33      -0.3025
     12 N          -1.0968   -0.3073   -0.2373 N.am    4  TRP44      -0.3022
     13 NE1        -1.9534    1.6747   -4.1226 N.ar    4  TRP44      -0.3604
     14 CA          4.7034    1.0614    0.9939 C.3     1  PRO11       0.1023
     15 CB          5.3130    1.6700    2.2588 C.3     1  PRO11      -0.0243
     16 CG          4.1104    2.2501    2.9944 C.3     1  PRO11      -0.0350
     17 CD          3.2345    2.7597    1.8618 C.3     1  PRO11       0.0156
     18 C           4.3585   -0.4347    1.1647 C.2     1  PRO11       0.2342
     19 C           2.9170    1.9150   -0.4865 C.2     5  ASP55       0.2369
     20 CA          3.6259   -2.4466   -0.0843 C.3     2  VAL22       0.1017
     21 CA          1.6934    2.8446   -0.6799 C.3     5  ASP55       0.1047
     22 CB          4.5256   -3.4170   -0.8816 C.3     2  VAL22      -0.0197
     23 CA         -0.1891   -2.5738   -0.1731 C.3     3  LEU33       0.0996
     24 C           2.1974   -2.3255   -0.6518 C.2     2  VAL22       0.2342
     25 CB          1.7192    3.5067   -2.0476 C.3     5  ASP55       0.0138
     26 CA         -1.5672    0.9835    0.2789 C.3     4  TRP44       0.1034
     27 CB         -1.0691   -3.7725    0.1928 C.3     3  LEU33      -0.0236
     28 CG         -0.7283   -5.0675   -0.5750 C.3     3  LEU33      -0.0446
     29 C          -0.4568    2.0530    0.3579 C.2     4  TRP44       0.2343
     30 CB         -2.7751    1.4978   -0.5251 C.3     4  TRP44       0.0013
     31 C          -0.6645   -1.3212    0.5846 C.2     3  LEU33       0.2340
     32 CG1         4.7641   -3.0129   -2.3387 C.3     2  VAL22      -0.0605
     33 CG2         3.9864   -4.8501   -0.8195 C.3     2  VAL22      -0.0605
     34 CG         -2.4901    1.8344   -1.9628 C.ar    4  TRP44      -0.0201
     35 CG          2.9051    4.4562   -2.1712 C.2     5  ASP55       0.0440
     36 CD1        -1.6868   -6.1827   -0.1513 C.3     3  LEU33      -0.0626
     37 CD2        -0.7854   -4.8912   -2.0942 C.3     3  LEU33      -0.0626
     38 CD2        -2.4262    3.1523   -2.5257 C.ar    4  TRP44       0.0029
     39 CD1        -2.2491    0.9499   -2.9988 C.ar    4  TRP44       0.0060
     40 CE2        -2.0897    3.0178   -3.8721 C.ar    4  TRP44       0.0467
     41 CE3        -2.6062    4.4520   -2.0083 C.ar    4  TRP44      -0.0523
     42 CZ2        -1.9168    4.1135   -4.7256 C.ar    4  TRP44      -0.0378
     43 CZ3        -2.4510    5.5589   -2.8508 C.ar    4  TRP44      -0.0611
     44 CH2        -2.1080    5.3891   -4.1891 C.ar    4  TRP44      -0.0598
     45 H           3.9870   -0.4931   -0.8372 H       2  VAL22       0.1495
     46 H           0.5863    1.1213   -1.1741 H       5  ASP55       0.1495
     47 H           1.4119   -2.8076    1.1773 H       3  LEU33       0.1495
     48 H          -0.8319   -0.3404   -1.2152 H       4  TRP44       0.1495
     49 HE1        -1.6756    1.2896   -5.0144 H       4  TRP44       0.1653
     50 HA          5.3899    1.1687    0.1454 H       1  PRO11       0.0597
     51 HB1         5.9927    2.4854    1.9815 H       1  PRO11       0.0288
     52 HB2         5.8743    0.9574    2.8702 H       1  PRO11       0.0288
     53 HG1         4.3835    3.0376    3.7020 H       1  PRO11       0.0281
     54 HG2         3.5912    1.4579    3.5467 H       1  PRO11       0.0281
     55 HD1         2.1752    2.7695    2.1307 H       1  PRO11       0.0465
     56 HD2         3.5406    3.7626    1.5462 H       1  PRO11       0.0465
     57 HA          3.5560   -2.8343    0.9392 H       2  VAL22       0.0597
     58 HA          1.6237    3.6005    0.1052 H       5  ASP55       0.0598
     59 HB          5.5093   -3.4203   -0.3912 H       2  VAL22       0.0318
     60 HA         -0.2757   -2.3805   -1.2473 H       3  LEU33       0.0594
     61 HB1         0.7993    4.0824   -2.2047 H       5  ASP55       0.0348
     62 HB2         1.7763    2.7606   -2.8501 H       5  ASP55       0.0348
     63 HA         -1.8957    0.8162    1.3132 H       4  TRP44       0.0598
     64 HB1        -2.1193   -3.5078    0.0092 H       3  LEU33       0.0290
     65 HB2        -0.9900   -3.9700    1.2706 H       3  LEU33       0.0290
     66 HG          0.2883   -5.3816   -0.3072 H       3  LEU33       0.0296
     67 HB1        -3.1863    2.3813   -0.0213 H       4  TRP44       0.0337
     68 HB2        -3.5694    0.7394   -0.5044 H       4  TRP44       0.0337
     69 HG11        3.8505   -3.0793   -2.9368 H       2  VAL22       0.0233
     70 HG12        5.5026   -3.6788   -2.7997 H       2  VAL22       0.0233
     71 HG13        5.1540   -1.9932   -2.4134 H       2  VAL22       0.0233
     72 HG21        3.0259   -4.9434   -1.3371 H       2  VAL22       0.0233
     73 HG22        3.8471   -5.1706    0.2183 H       2  VAL22       0.0233
     74 HG23        4.6880   -5.5475   -1.2902 H       2  VAL22       0.0233
     75 HD11       -2.7223   -5.9344   -0.4088 H       3  LEU33       0.0232
     76 HD12       -1.6357   -6.3509    0.9293 H       3  LEU33       0.0232
     77 HD13       -1.4315   -7.1246   -0.6483 H       3  LEU33       0.0232
     78 HD21       -1.7447   -4.4673   -2.4095 H       3  LEU33       0.0232
     79 HD22       -0.6553   -5.8519   -2.6040 H       3  LEU33       0.0232
     80 HD23        0.0134   -4.2328   -2.4495 H       3  LEU33       0.0232
     81 HD1        -2.2279   -0.1305   -3.0317 H       4  TRP44       0.0810
     82 HE3        -2.8435    4.6029   -0.9595 H       4  TRP44       0.0624
     83 HZ2        -1.6202    3.9866   -5.7612 H       4  TRP44       0.0638
     84 HZ3        -2.5731    6.5605   -2.4474 H       4  TRP44       0.0618
     85 HH2        -1.9599    6.2617   -4.8206 H       4  TRP44       0.0618
@<TRIPOS>BOND
     1     1    18    2
     2     2    19    2
     3     3    24    2
     4     4    29    2
     5     5    31    2
     6     6    35   ar
     7     7    35   ar
     8     8    14    1
     9     8    17    1
    10     8    19   am
    11     9    18   am
    12     9    20    1
    13    10    21    1
    14    10    29   am
    15    11    23    1
    16    11    24   am
    17    12    26    1
    18    12    31   am
    19    13    39   ar
    20    13    40   ar
    21    14    15    1
    22    14    18    1
    23    15    16    1
    24    16    17    1
    25    19    21    1
    26    20    22    1
    27    20    24    1
    28    21    25    1
    29    22    32    1
    30    22    33    1
    31    23    27    1
    32    23    31    1
    33    25    35    1
    34    26    29    1
    35    26    30    1
    36    27    28    1
    37    28    36    1
    38    28    37    1
    39    30    34    1
    40    34    38   ar
    41    34    39   ar
    42    38    40   ar
    43    38    41   ar
    44    40    42   ar
    45    41    43   ar
    46    42    44   ar
    47    43    44   ar
    48     9    45    1
    49    10    46    1
    50    11    47    1
    51    12    48    1
    52    13    49    1
    53    14    50    1
    54    15    51    1
    55    15    52    1
    56    16    53    1
    57    16    54    1
    58    17    55    1
    59    17    56    1
    60    20    57    1
    61    21    58    1
    62    22    59    1
    63    23    60    1
    64    25    61    1
    65    25    62    1
    66    26    63    1
    67    27    64    1
    68    27    65    1
    69    28    66    1
    70    30    67    1
    71    30    68    1
    72    32    69    1
    73    32    70    1
    74    32    71    1
    75    33    72    1
    76    33    73    1
    77    33    74    1
    78    36    75    1
    79    36    76    1
    80    36    77    1
    81    37    78    1
    82    37    79    1
    83    37    80    1
    84    39    81    1
    85    41    82    1
    86    42    83    1
    87    43    84    1
    88    44    85    1
