@<TRIPOS>MOLECULE
../1EDN/3STEPMIN_17-21.pdb
 47 48 0 0 0
SMALL
GASTEIGER

@<TRIPOS>ATOM
      1  N         -5.4290    0.8830   -1.1740 N.3    17  LEU17      -0.1231
      2  CA        -6.8230    0.6710   -0.7980 C.3    17  LEU17       0.1693
      3  CB        -6.9230   -0.4370    0.2770 C.3    17  LEU17       0.0284
      4  CG        -6.4950   -1.8450   -0.1910 C.3    17  LEU17       0.0019
      5  CD1       -6.5150   -2.8060    0.9980 C.3    17  LEU17       0.0001
      6  CD2       -7.4310   -2.4140   -1.2600 C.3    17  LEU17       0.0001
      7  C         -7.3990    2.0370   -0.3760 C.2    17  LEU17       0.2592
      8  O         -7.4670    2.9330   -1.2040 O.2    17  LEU17      -0.2718
      9  N         -7.7380    2.2560    0.8970 N.am   18  ASP18      -0.1960
     10  CA        -8.5130    3.4280    1.3730 C.3    18  ASP18       0.1840
     11  CB        -9.0510    3.1310    2.7840 C.3    18  ASP18       0.1450
     12  CG       -10.5470    3.4340    2.8500 C.2    18  ASP18       0.3671
     13  OD1      -11.3300    2.4930    2.5610 O.co2  18  ASP18      -0.2456
     14  OD2      -10.9050    4.5930    3.1470 O.co2  18  ASP18      -0.2456
     15  C         -7.8270    4.8120    1.2910 C.2    18  ASP18       0.2622
     16  O         -8.3890    5.8210    1.7350 O.2    18  ASP18      -0.2715
     17  N         -6.6250    4.8510    0.7010 N.am   19  ILE19      -0.1963
     18  CA        -5.9180    6.0210    0.1680 C.3    19  ILE19       0.1727
     19  CB        -4.3960    5.7260    0.0740 C.3    19  ILE19       0.0290
     20  CG2       -3.6150    6.9530   -0.4300 C.3    19  ILE19       0.0023
     21  CG1       -3.7730    5.2100    1.3920 C.3    19  ILE19       0.0022
     22  CD1       -3.8620    6.1700    2.5820 C.3    19  ILE19       0.0001
     23  C         -6.4970    6.4050   -1.2110 C.2    19  ILE19       0.2616
     24  O         -7.0070    7.5130   -1.3720 O.2    19  ILE19      -0.2715
     25  N         -6.3950    5.4980   -2.1940 N.am   20  ILE20      -0.1963
     26  CA        -6.9990    5.5490   -3.5400 C.3    20  ILE20       0.1727
     27  CB        -6.0900    6.2460   -4.5940 C.3    20  ILE20       0.0290
     28  CG2       -6.7980    6.2490   -5.9680 C.3    20  ILE20       0.0023
     29  CG1       -5.7140    7.6970   -4.2070 C.3    20  ILE20       0.0022
     30  CD1       -4.7810    8.4150   -5.1910 C.3    20  ILE20       0.0001
     31  C         -7.3180    4.1070   -3.9880 C.2    20  ILE20       0.2617
     32  O         -6.4020    3.3070   -4.2100 O.2    20  ILE20      -0.2715
     33  N         -8.6100    3.8210   -4.1620 N.am   21  TRP21      -0.1938
     34  CA        -9.2240    2.5950   -4.7020 C.3    21  TRP21       0.2021
     35  CB        -9.7020    1.6830   -3.5450 C.3    21  TRP21       0.0612
     36  CG       -10.4970    2.2370   -2.3850 C.ar   21  TRP21       0.0007
     37  CD1      -10.6860    1.5470   -1.2340 C.ar   21  TRP21       0.0946
     38  NE1      -11.3350    2.3340   -0.3040 N.ar   21  TRP21      -0.2442
     39  CE2      -11.5720    3.5950   -0.7990 C.ar   21  TRP21       0.0810
     40  CZ2      -12.0950    4.7480   -0.2000 C.ar   21  TRP21       0.0191
     41  CH2      -12.2340    5.9130   -0.9670 C.ar   21  TRP21       0.0015
     42  CZ3      -11.8800    5.8920   -2.3260 C.ar   21  TRP21       0.0001
     43  CE3      -11.3480    4.7280   -2.9100 C.ar   21  TRP21       0.0012
     44  CD2      -11.1270    3.5500   -2.1550 C.ar   21  TRP21       0.0152
     45  C        -10.3230    2.8760   -5.7330 C.2    21  TRP21       0.3845
     46  O        -11.0800    1.9620   -6.0950 O.co2  21  TRP21      -0.2437
     47  OXT      -10.4270    4.0430   -6.2080 O.co2  21  TRP21      -0.2437
@<TRIPOS>BOND
     1    47    45   ar
     2    46    45   ar
     3    28    27    1
     4    45    34    1
     5    30    29    1
     6    34    33    1
     7    34    35    1
     8    27    29    1
     9    27    26    1
    10    32    31    2
    11    33    31   am
    12    31    26    1
    13    35    36    1
    14    26    25    1
    15    43    42   ar
    16    43    44   ar
    17    36    44   ar
    18    36    37   ar
    19    42    41   ar
    20    25    23   am
    21    44    39   ar
    22    24    23    2
    23     6     4    1
    24    37    38   ar
    25    23    18    1
    26     8     7    2
    27     1     2    1
    28    41    40   ar
    29    39    38   ar
    30    39    40   ar
    31     2     7    1
    32     2     3    1
    33    20    19    1
    34     7     9   am
    35     4     3    1
    36     4     5    1
    37    19    18    1
    38    19    21    1
    39    18    17    1
    40    17    15   am
    41     9    10    1
    42    15    10    1
    43    15    16    2
    44    10    11    1
    45    21    22    1
    46    13    12   ar
    47    11    12    1
    48    12    14   ar
@<TRIPOS>MOLECULE
16219006
 44 47 0 0 0
SMALL
GASTEIGER

@<TRIPOS>ATOM
      1 O          -4.7159    8.0790   -3.2440 O.2     1  PRO11      -0.2738
      2 O          -5.1717    3.9341   -2.7559 O.2     5  ASP55      -0.2735
      3 O          -2.4191    4.6396   -0.6351 O.2     2  VAL22      -0.2738
      4 O          -9.2736    4.7643   -0.6308 O.2     4  TRP44      -0.2738
      5 O          -6.2245    6.8201    0.6867 O.2     3  LEU33      -0.2738
      6 OD1        -9.0277    1.7489   -4.5098 O.co2   5  ASP55      -0.5497
      7 OD2        -6.8818    2.2262   -5.1174 O.co2   5  ASP55      -0.5497
      8 N          -6.6402    5.4240   -3.6400 N.am    1  PRO11      -0.2884
      9 N          -3.5959    6.0913   -3.0578 N.am    2  VAL22      -0.3022
     10 N          -7.3586    3.5349   -0.9704 N.am    5  ASP55      -0.3021
     11 N          -3.5645    6.4764    0.1142 N.am    3  LEU33      -0.3025
     12 N          -6.2881    4.6278    1.3435 N.am    4  TRP44      -0.3022
     13 NE1        -7.8743    4.1790    5.6244 N.ar    4  TRP44      -0.3604
     14 CA         -5.6221    6.1219   -4.4247 C.3     1  PRO11       0.1023
     15 CB         -6.4199    7.0579   -5.3391 C.3     1  PRO11      -0.0243
     16 CG         -7.7273    7.2721   -4.5867 C.3     1  PRO11      -0.0350
     17 CD         -7.9713    5.9168   -3.9467 C.3     1  PRO11       0.0156
     18 C          -4.6213    6.8864   -3.5259 C.2     1  PRO11       0.2342
     19 C          -6.3484    4.2358   -3.0056 C.2     5  ASP55       0.2369
     20 CA         -2.5766    6.5648   -2.1289 C.3     2  VAL22       0.1017
     21 CA         -7.5163    3.3980   -2.4277 C.3     5  ASP55       0.1047
     22 CB         -1.1603    6.3235   -2.6962 C.3     2  VAL22      -0.0197
     23 CA         -4.1134    5.7917    1.2751 C.3     3  LEU33       0.0996
     24 C          -2.8138    5.7889   -0.8186 C.2     2  VAL22       0.2342
     25 CB         -7.3890    1.9399   -2.8348 C.3     5  ASP55       0.0138
     26 CA         -7.7503    4.5467    1.2334 C.3     4  TRP44       0.1034
     27 CB         -3.7926    6.5109    2.5940 C.3     3  LEU33      -0.0236
     28 CG         -2.3473    6.3194    3.1039 C.3     3  LEU33      -0.0446
     29 C          -8.1848    4.3572   -0.2302 C.2     4  TRP44       0.2343
     30 CB         -8.3338    3.3881    2.0543 C.3     4  TRP44       0.0013
     31 C          -5.6365    5.8056    1.0621 C.2     3  LEU33       0.2340
     32 CG1        -0.0736    6.6964   -1.6797 C.3     2  VAL22      -0.0605
     33 CG2        -0.9407    7.1400   -3.9766 C.3     2  VAL22      -0.0605
     34 CG         -7.9928    3.4719    3.5135 C.ar    4  TRP44      -0.0201
     35 CG         -7.8031    1.9645   -4.2970 C.2     5  ASP55       0.0440
     36 CD1        -1.3095    7.0660    2.2648 C.3     3  LEU33      -0.0626
     37 CD2        -2.2464    6.7947    4.5577 C.3     3  LEU33      -0.0626
     38 CD2        -7.1676    2.5674    4.2568 C.ar    4  TRP44       0.0029
     39 CD1        -8.4159    4.4459    4.3973 C.ar    4  TRP44       0.0060
     40 CE2        -7.1084    3.0386    5.5689 C.ar    4  TRP44       0.0467
     41 CE3        -6.4627    1.3890    3.9348 C.ar    4  TRP44      -0.0523
     42 CZ2        -6.3783    2.3933    6.5745 C.ar    4  TRP44      -0.0378
     43 CZ3        -5.7309    0.7291    4.9284 C.ar    4  TRP44      -0.0611
     44 CH2        -5.6900    1.2268    6.2283 C.ar    4  TRP44      -0.0598
@<TRIPOS>BOND
     1     1    18    2
     2     2    19    2
     3     3    24    2
     4     4    29    2
     5     5    31    2
     6     6    35   ar
     7     7    35   ar
     8     8    14    1
     9     8    17    1
    10     8    19   am
    11     9    18   am
    12     9    20    1
    13    10    21    1
    14    10    29   am
    15    11    23    1
    16    11    24   am
    17    12    26    1
    18    12    31   am
    19    13    39   ar
    20    13    40   ar
    21    14    15    1
    22    14    18    1
    23    15    16    1
    24    16    17    1
    25    19    21    1
    26    20    22    1
    27    20    24    1
    28    21    25    1
    29    22    32    1
    30    22    33    1
    31    23    27    1
    32    23    31    1
    33    25    35    1
    34    26    29    1
    35    26    30    1
    36    27    28    1
    37    28    36    1
    38    28    37    1
    39    30    34    1
    40    34    38   ar
    41    34    39   ar
    42    38    40   ar
    43    38    41   ar
    44    40    42   ar
    45    41    43   ar
    46    42    44   ar
    47    43    44   ar
