@<TRIPOS>MOLECULE
ET1_17-21_50CONFORMERS.pdb
 47 48 0 0 0
SMALL
GASTEIGER

@<TRIPOS>ATOM
      1  N         -4.8610   -0.2350   -1.3410 N.3    17  LEU17      -0.1231
      2  CA        -6.1980   -0.6940   -1.8490 C.3    17  LEU17       0.1693
      3  CB        -6.3930   -2.1110   -1.2450 C.3    17  LEU17       0.0284
      4  CG        -7.8050   -2.6450   -1.5590 C.3    17  LEU17       0.0019
      5  CD1       -8.0140   -2.9180   -3.0380 C.3    17  LEU17       0.0001
      6  CD2       -7.9070   -3.9870   -0.9150 C.3    17  LEU17       0.0001
      7  C         -7.2730    0.3850   -1.5790 C.2    17  LEU17       0.2592
      8  O         -8.0840    0.6620   -2.4580 O.2    17  LEU17      -0.2718
      9  N         -7.2350    1.0770   -0.4310 N.am   18  ASP18      -0.1960
     10  CA        -8.2450    2.0950   -0.0220 C.3    18  ASP18       0.1840
     11  CB        -9.3620    1.4500    0.8640 C.3    18  ASP18       0.1450
     12  CG       -10.6720    2.2570    1.0000 C.2    18  ASP18       0.3671
     13  OD1      -11.6310    1.9220    0.2700 O.co2  18  ASP18      -0.2456
     14  OD2      -10.5730    3.2610    1.7420 O.co2  18  ASP18      -0.2456
     15  C         -7.6690    3.3430    0.6470 C.2    18  ASP18       0.2622
     16  O         -8.1140    4.4430    0.3020 O.2    18  ASP18      -0.2715
     17  N         -6.7110    3.1950    1.5940 N.am   19  ILE19      -0.1963
     18  CA        -6.0160    4.3380    2.1630 C.3    19  ILE19       0.1727
     19  CB        -5.0550    3.8790    3.3490 C.3    19  ILE19       0.0290
     20  CG2       -4.4720    5.1840    3.9940 C.3    19  ILE19       0.0023
     21  CG1       -5.7460    2.9110    4.3260 C.3    19  ILE19       0.0022
     22  CD1       -4.7660    1.9810    5.1360 C.3    19  ILE19       0.0001
     23  C         -5.2160    5.0880    1.1020 C.2    19  ILE19       0.2616
     24  O         -4.9940    6.2970    1.0190 O.2    19  ILE19      -0.2715
     25  N         -4.7410    4.3480    0.0970 N.am   20  ILE20      -0.1963
     26  CA        -4.1220    4.8230   -1.1620 C.3    20  ILE20       0.1727
     27  CB        -2.5890    4.6890   -1.2580 C.3    20  ILE20       0.0290
     28  CG2       -2.0360    5.2650   -2.5660 C.3    20  ILE20       0.0023
     29  CG1       -1.8000    5.2360   -0.0430 C.3    20  ILE20       0.0022
     30  CD1       -0.3250    4.8950   -0.2060 C.3    20  ILE20       0.0001
     31  C         -4.9050    4.2320   -2.2970 C.2    20  ILE20       0.2617
     32  O         -4.8850    3.0030   -2.5220 O.2    20  ILE20      -0.2715
     33  N         -5.7970    5.0310   -2.9350 N.am   21  TRP21      -0.1941
     34  CA        -6.6830    4.6520   -4.0820 C.3    21  TRP21       0.1982
     35  CB        -8.1130    4.2690   -3.5790 C.3    21  TRP21       0.0394
     36  CG        -8.8290    3.5660   -4.6970 C.3    21  TRP21       0.0475
     37  CD1       -9.9260    4.0510   -5.2650 C.3    21  TRP21       0.1166
     38  NE1      -10.2060    3.2220   -6.3210 N.pl3  21  TRP21      -0.2376
     39  CE2       -9.3890    2.1000   -6.4570 C.ar   21  TRP21       0.0614
     40  CZ2       -9.1720    1.1080   -7.4220 C.ar   21  TRP21       0.0158
     41  CH2       -8.0480    0.2790   -7.2920 C.ar   21  TRP21       0.0013
     42  CZ3       -7.2130    0.4420   -6.1700 C.ar   21  TRP21      -0.0002
     43  CE3       -7.3150    1.4940   -5.3170 C.ar   21  TRP21      -0.0030
     44  CD2       -8.4260    2.3550   -5.4210 C.ar   21  TRP21      -0.0059
     45  C         -6.7050    5.7420   -5.1900 C.2    21  TRP21       0.3842
     46  O         -6.0970    5.4510   -6.2480 O.co2  21  TRP21      -0.2437
     47  OXT       -7.3810    6.7920   -5.1470 O.co2  21  TRP21      -0.2437
@<TRIPOS>BOND
     1    40    41   ar
     2    40    39   ar
     3    41    42   ar
     4    39    38    1
     5    39    44   ar
     6    42    43   ar
     7    38    37    1
     8    43    44   ar
     9    44    36    1
    10    37    36    1
    11    36    35    1
    12    47    45   ar
    13     5     4    1
    14    35    34    1
    15    45    34    1
    16    45    46   ar
    17    34    33    1
    18     8     7    2
    19     4     6    1
    20     4     3    1
    21     2     3    1
    22     2     1    1
    23     2     7    1
    24     7     9   am
    25    33    31   am
    26    32    31    2
    27    31    26    1
    28     9    10    1
    29    10    11    1
    30    10    15    1
    31    26    27    1
    32    26    25    1
    33    11    12    1
    34    13    12   ar
    35    27    29    1
    36    27    28    1
    37    29    30    1
    38    16    15    2
    39    15    17   am
    40    12    14   ar
    41    25    23   am
    42    17    18    1
    43    23    24    2
    44    23    18    1
    45    18    19    1
    46    19    21    1
    47    19    20    1
    48    21    22    1
@<TRIPOS>MOLECULE
16219006
 44 47 0 0 0
SMALL
GASTEIGER

@<TRIPOS>ATOM
      1 O          -6.7636    1.9626    3.1745 O.2     1  PRO11      -0.2738
      2 O          -3.2330    2.2444    0.8997 O.2     5  ASP55      -0.2735
      3 O          -4.1043   -1.1922    0.6088 O.2     2  VAL22      -0.2738
      4 O          -5.6902    4.7999   -2.2531 O.2     4  TRP44      -0.2738
      5 O          -7.4094    1.4408   -1.0860 O.2     3  LEU33      -0.2738
      6 OD1        -0.3978    4.6570    0.8396 O.co2   5  ASP55      -0.5497
      7 OD2        -1.9721    6.2341    0.3601 O.co2   5  ASP55      -0.5497
      8 N          -4.6172    3.9019    1.5881 N.am    1  PRO11      -0.2884
      9 N          -4.7803    0.9272    2.6907 N.am    2  VAL22      -0.3022
     10 N          -4.0716    3.2789   -1.6537 N.am    5  ASP55      -0.3021
     11 N          -6.3076   -0.6312    0.3351 N.am    3  LEU33      -0.3025
     12 N          -5.6867    1.2254   -2.5794 N.am    4  TRP44      -0.3022
     13 NE1        -5.9832   -0.0175   -6.9533 N.ar    4  TRP44      -0.3604
     14 CA         -4.7552    3.3610    2.9391 C.3     1  PRO11       0.1023
     15 CB         -5.4537    4.4751    3.7254 C.3     1  PRO11      -0.0243
     16 CG         -6.2056    5.2568    2.6551 C.3     1  PRO11      -0.0350
     17 CD         -5.2579    5.2003    1.4693 C.3     1  PRO11       0.0156
     18 C          -5.5566    2.0370    2.9550 C.2     1  PRO11       0.2342
     19 C          -3.7042    3.3749    0.7029 C.2     5  ASP55       0.2369
     20 CA         -5.3303   -0.4188    2.5729 C.3     2  VAL22       0.1017
     21 CA         -3.4363    4.1211   -0.6268 C.3     5  ASP55       0.1047
     22 CB         -4.5954   -1.4008    3.5118 C.3     2  VAL22      -0.0197
     23 CA         -6.2446   -0.6803   -1.1183 C.3     3  LEU33       0.0996
     24 C          -5.1675   -0.8082    1.0918 C.2     2  VAL22       0.2342
     25 CB         -1.9424    4.2249   -0.8822 C.3     5  ASP55       0.0138
     26 CA         -5.8920    2.5644   -3.1429 C.3     4  TRP44       0.1034
     27 CB         -7.3142   -1.5981   -1.7289 C.3     3  LEU33      -0.0236
     28 CG         -7.0111   -3.1080   -1.6155 C.3     3  LEU33      -0.0446
     29 C          -5.2554    3.6497   -2.2581 C.2     4  TRP44       0.2343
     30 CB         -5.3061    2.6979   -4.5557 C.3     4  TRP44       0.0013
     31 C          -6.5070    0.7636   -1.5770 C.2     3  LEU33       0.2340
     32 CG1        -5.0670   -2.8448    3.3010 C.3     2  VAL22      -0.0605
     33 CG2        -4.8192   -1.0178    4.9803 C.3     2  VAL22      -0.0605
     34 CG         -5.8507    1.6913   -5.5277 C.ar    4  TRP44      -0.0201
     35 CG         -1.3852    5.1278    0.2103 C.2     5  ASP55       0.0440
     36 CD1        -7.1383   -3.6406   -0.1880 C.3     3  LEU33      -0.0626
     37 CD2        -7.9594   -3.8943   -2.5268 C.3     3  LEU33      -0.0626
     38 CD2        -7.2032    1.5781   -5.9885 C.ar    4  TRP44       0.0029
     39 CD1        -5.1304    0.6910   -6.1518 C.ar    4  TRP44       0.0060
     40 CE2        -7.2557    0.4950   -6.8665 C.ar    4  TRP44       0.0467
     41 CE3        -8.3926    2.2928   -5.7357 C.ar    4  TRP44      -0.0523
     42 CZ2        -8.4373    0.0858   -7.4971 C.ar    4  TRP44      -0.0378
     43 CZ3        -9.5836    1.8946   -6.3537 C.ar    4  TRP44      -0.0611
     44 CH2        -9.6030    0.8056   -7.2206 C.ar    4  TRP44      -0.0598
@<TRIPOS>BOND
     1     1    18    2
     2     2    19    2
     3     3    24    2
     4     4    29    2
     5     5    31    2
     6     6    35   ar
     7     7    35   ar
     8     8    14    1
     9     8    17    1
    10     8    19   am
    11     9    18   am
    12     9    20    1
    13    10    21    1
    14    10    29   am
    15    11    23    1
    16    11    24   am
    17    12    26    1
    18    12    31   am
    19    13    39   ar
    20    13    40   ar
    21    14    15    1
    22    14    18    1
    23    15    16    1
    24    16    17    1
    25    19    21    1
    26    20    22    1
    27    20    24    1
    28    21    25    1
    29    22    32    1
    30    22    33    1
    31    23    27    1
    32    23    31    1
    33    25    35    1
    34    26    29    1
    35    26    30    1
    36    27    28    1
    37    28    36    1
    38    28    37    1
    39    30    34    1
    40    34    38   ar
    41    34    39   ar
    42    38    40   ar
    43    38    41   ar
    44    40    42   ar
    45    41    43   ar
    46    42    44   ar
    47    43    44   ar
