@<TRIPOS>MOLECULE
ET1_17-21_50CONFORMERS.pdb
 47 48 0 0 0
SMALL
GASTEIGER

@<TRIPOS>ATOM
      1  N         -4.8070    0.3350   -1.8510 N.3    17  LEU17      -0.1231
      2  CA        -5.9720   -0.3250   -2.3930 C.3    17  LEU17       0.1693
      3  CB        -6.0760   -1.7180   -1.5760 C.3    17  LEU17       0.0284
      4  CG        -7.3110   -2.5820   -1.9470 C.3    17  LEU17       0.0019
      5  CD1       -6.9390   -3.2580   -3.2630 C.3    17  LEU17       0.0001
      6  CD2       -7.7350   -3.6450   -0.9830 C.3    17  LEU17       0.0001
      7  C         -7.1850    0.6100   -2.2360 C.2    17  LEU17       0.2592
      8  O         -7.8620    0.7970   -3.2410 O.2    17  LEU17      -0.2718
      9  N         -7.5030    1.0240   -0.9560 N.am   18  ASP18      -0.1960
     10  CA        -8.6550    1.7030   -0.4650 C.3    18  ASP18       0.1840
     11  CB        -9.4600    0.6200    0.3120 C.3    18  ASP18       0.1450
     12  CG       -10.8310    1.1150    0.8640 C.2    18  ASP18       0.3671
     13  OD1      -11.8750    0.6760    0.3220 O.co2  18  ASP18      -0.2456
     14  OD2      -10.9420    1.8120    1.8850 O.co2  18  ASP18      -0.2456
     15  C         -8.2440    2.9730    0.3820 C.2    18  ASP18       0.2622
     16  O         -8.5260    4.1000   -0.0090 O.2    18  ASP18      -0.2715
     17  N         -7.4690    2.7490    1.4010 N.am   19  ILE19      -0.1963
     18  CA        -6.7810    3.7650    2.1880 C.3    19  ILE19       0.1727
     19  CB        -5.8310    3.1830    3.2140 C.3    19  ILE19       0.0290
     20  CG2       -5.2210    4.3700    4.0780 C.3    19  ILE19       0.0023
     21  CG1       -6.5890    2.1450    4.0960 C.3    19  ILE19       0.0022
     22  CD1       -7.7320    2.6430    4.9740 C.3    19  ILE19       0.0001
     23  C         -6.1710    4.8710    1.3220 C.2    19  ILE19       0.2616
     24  O         -6.6090    6.0060    1.3240 O.2    19  ILE19      -0.2715
     25  N         -5.0650    4.4950    0.5440 N.am   20  ILE20      -0.1963
     26  CA        -4.7620    5.2980   -0.6580 C.3    20  ILE20       0.1727
     27  CB        -3.2350    5.6430   -0.5900 C.3    20  ILE20       0.0290
     28  CG2       -3.1020    6.4660    0.6790 C.3    20  ILE20       0.0023
     29  CG1       -2.3060    4.4540   -0.7430 C.3    20  ILE20       0.0022
     30  CD1       -0.8980    4.8160   -0.4210 C.3    20  ILE20       0.0001
     31  C         -5.0510    4.4690   -1.9320 C.2    20  ILE20       0.2617
     32  O         -5.2790    3.2730   -1.9100 O.2    20  ILE20      -0.2715
     33  N         -5.0650    5.1730   -3.0850 N.am   21  TRP21      -0.1941
     34  CA        -5.1520    4.7060   -4.4930 C.3    21  TRP21       0.1982
     35  CB        -6.6430    4.4220   -4.8850 C.3    21  TRP21       0.0394
     36  CG        -6.7540    3.5400   -6.0910 C.3    21  TRP21       0.0475
     37  CD1       -6.3480    2.2620   -6.1710 C.3    21  TRP21       0.1166
     38  NE1       -6.6350    1.6980   -7.4270 N.pl3  21  TRP21      -0.2376
     39  CE2       -7.4160    2.5970   -8.1310 C.ar   21  TRP21       0.0614
     40  CZ2       -7.9590    2.5090   -9.4120 C.ar   21  TRP21       0.0158
     41  CH2       -8.6650    3.6450   -9.9300 C.ar   21  TRP21       0.0013
     42  CZ3       -8.6550    4.8890   -9.1660 C.ar   21  TRP21      -0.0002
     43  CE3       -8.0720    4.9490   -7.9420 C.ar   21  TRP21      -0.0030
     44  CD2       -7.4040    3.8200   -7.3920 C.ar   21  TRP21      -0.0059
     45  C         -4.4520    5.7090   -5.4240 C.2    21  TRP21       0.3842
     46  O         -4.9300    6.8650   -5.4290 O.co2  21  TRP21      -0.2437
     47  OXT       -3.4930    5.4370   -6.1890 O.co2  21  TRP21      -0.2437
@<TRIPOS>BOND
     1    40    41   ar
     2    40    39   ar
     3    41    42   ar
     4    39    38    1
     5    39    44   ar
     6    42    43   ar
     7    38    37    1
     8    43    44   ar
     9    44    36    1
    10    37    36    1
    11    36    35    1
    12    47    45   ar
    13     5     4    1
    14    35    34    1
    15    45    34    1
    16    45    46   ar
    17    34    33    1
    18     8     7    2
    19     4     6    1
    20     4     3    1
    21     2     3    1
    22     2     1    1
    23     2     7    1
    24     7     9   am
    25    33    31   am
    26    32    31    2
    27    31    26    1
    28     9    10    1
    29    10    11    1
    30    10    15    1
    31    26    27    1
    32    26    25    1
    33    11    12    1
    34    13    12   ar
    35    27    29    1
    36    27    28    1
    37    29    30    1
    38    16    15    2
    39    15    17   am
    40    12    14   ar
    41    25    23   am
    42    17    18    1
    43    23    24    2
    44    23    18    1
    45    18    19    1
    46    19    21    1
    47    19    20    1
    48    21    22    1
@<TRIPOS>MOLECULE
16219006
 44 47 0 0 0
SMALL
GASTEIGER

@<TRIPOS>ATOM
      1 O          -7.4018    0.6418    1.3235 O.2     1  PRO11      -0.2738
      2 O          -9.5639    4.0742    0.0649 O.2     5  ASP55      -0.2735
      3 O          -6.4416    5.4069    1.0346 O.2     2  VAL22      -0.2738
      4 O          -8.9371    2.2052   -4.1169 O.2     4  TRP44      -0.2738
      5 O          -5.4228    2.5798   -2.6139 O.2     3  LEU33      -0.2738
      6 OD1       -12.8469    3.2598   -0.9420 O.co2   5  ASP55      -0.5497
      7 OD2       -13.7678    4.6835   -2.4666 O.co2   5  ASP55      -0.5497
      8 N          -9.9067    1.8776   -0.4009 N.am    1  PRO11      -0.2884
      9 N          -7.8485    2.8382    1.7877 N.am    2  VAL22      -0.3022
     10 N          -9.2072    4.0698   -2.8073 N.am    5  ASP55      -0.3021
     11 N          -5.3233    3.7148   -0.0218 N.am    3  LEU33      -0.3025
     12 N          -6.4574    4.5468   -3.1978 N.am    4  TRP44      -0.3022
     13 NE1        -9.8029    3.6836   -7.9557 N.ar    4  TRP44      -0.3604
     14 CA         -9.6951    1.4525    0.9808 C.3     1  PRO11       0.1023
     15 CB        -10.2010    0.0074    1.0210 C.3     1  PRO11      -0.0243
     16 CG        -10.0655   -0.4636   -0.4211 C.3     1  PRO11      -0.0350
     17 CD        -10.4110    0.7844   -1.2142 C.3     1  PRO11       0.0156
     18 C          -8.2058    1.5701    1.3772 C.2     1  PRO11       0.2342
     19 C         -10.0014    3.2175   -0.7193 C.2     5  ASP55       0.2369
     20 CA         -6.4719    3.2100    2.0897 C.3     2  VAL22       0.1017
     21 CA        -10.4434    3.6097   -2.1514 C.3     5  ASP55       0.1047
     22 CB         -6.3502    3.8182    3.5047 C.3     2  VAL22      -0.0197
     23 CA         -5.0225    4.5108   -1.2040 C.3     3  LEU33       0.0996
     24 C          -6.0736    4.2340    1.0103 C.2     2  VAL22       0.2342
     25 CB        -11.4463    4.7523   -2.1315 C.3     5  ASP55       0.0138
     26 CA         -7.2403    3.9382   -4.2877 C.3     4  TRP44       0.1034
     27 CB         -3.5121    4.6625   -1.4216 C.3     3  LEU33      -0.0236
     28 CG         -2.7722    5.4338   -0.3085 C.3     3  LEU33      -0.0446
     29 C          -8.5098    3.2799   -3.6998 C.2     4  TRP44       0.2343
     30 CB         -7.6121    5.0198   -5.3163 C.3     4  TRP44       0.0013
     31 C          -5.6422    3.7701   -2.4015 C.2     3  LEU33       0.2340
     32 CG1        -4.9119    4.2694    3.7914 C.3     2  VAL22      -0.0605
     33 CG2        -6.7777    2.8119    4.5797 C.3     2  VAL22      -0.0605
     34 CG         -8.2661    4.5080   -6.5628 C.ar    4  TRP44      -0.0201
     35 CG        -12.8162    4.1737   -1.8111 C.2     5  ASP55       0.0440
     36 CD1        -1.2715    5.4628   -0.6133 C.3     3  LEU33      -0.0626
     37 CD2        -3.2842    6.8656   -0.1397 C.3     3  LEU33      -0.0626
     38 CD2        -7.6923    4.3954   -7.8718 C.ar    4  TRP44       0.0029
     39 CD1        -9.5774    4.0858   -6.6698 C.ar    4  TRP44       0.0060
     40 CE2        -8.6780    3.8848   -8.7191 C.ar    4  TRP44       0.0467
     41 CE3        -6.4260    4.6870   -8.4217 C.ar    4  TRP44      -0.0523
     42 CZ2        -8.4636    3.6525  -10.0830 C.ar    4  TRP44      -0.0378
     43 CZ3        -6.1969    4.4682   -9.7856 C.ar    4  TRP44      -0.0611
     44 CH2        -7.2028    3.9584  -10.6025 C.ar    4  TRP44      -0.0598
@<TRIPOS>BOND
     1     1    18    2
     2     2    19    2
     3     3    24    2
     4     4    29    2
     5     5    31    2
     6     6    35   ar
     7     7    35   ar
     8     8    14    1
     9     8    17    1
    10     8    19   am
    11     9    18   am
    12     9    20    1
    13    10    21    1
    14    10    29   am
    15    11    23    1
    16    11    24   am
    17    12    26    1
    18    12    31   am
    19    13    39   ar
    20    13    40   ar
    21    14    15    1
    22    14    18    1
    23    15    16    1
    24    16    17    1
    25    19    21    1
    26    20    22    1
    27    20    24    1
    28    21    25    1
    29    22    32    1
    30    22    33    1
    31    23    27    1
    32    23    31    1
    33    25    35    1
    34    26    29    1
    35    26    30    1
    36    27    28    1
    37    28    36    1
    38    28    37    1
    39    30    34    1
    40    34    38   ar
    41    34    39   ar
    42    38    40   ar
    43    38    41   ar
    44    40    42   ar
    45    41    43   ar
    46    42    44   ar
    47    43    44   ar
