@<TRIPOS>MOLECULE
ET1_17-21_50CONFORMERS.pdb
 47 48 0 0 0
SMALL
GASTEIGER

@<TRIPOS>ATOM
      1  N         -4.4560   -0.3720   -1.4100 N.3    17  LEU17      -0.1231
      2  CA        -5.7750   -0.9810   -1.6350 C.3    17  LEU17       0.1693
      3  CB        -6.1140   -1.8820   -0.4900 C.3    17  LEU17       0.0284
      4  CG        -7.2650   -2.7690   -0.6600 C.3    17  LEU17       0.0019
      5  CD1       -7.3900   -3.4950   -2.0480 C.3    17  LEU17       0.0001
      6  CD2       -7.1410   -3.7620    0.4720 C.3    17  LEU17       0.0001
      7  C         -6.8180    0.1010   -1.9410 C.2    17  LEU17       0.2592
      8  O         -7.4610    0.1730   -2.9890 O.2    17  LEU17      -0.2718
      9  N         -6.9410    1.0200   -1.0240 N.am   18  ASP18      -0.1960
     10  CA        -7.8920    2.0760   -0.9710 C.3    18  ASP18       0.1840
     11  CB        -9.1410    1.7570   -0.1550 C.3    18  ASP18       0.1450
     12  CG       -10.1710    2.8850   -0.2460 C.2    18  ASP18       0.3671
     13  OD1      -10.6760    3.2080   -1.3630 O.co2  18  ASP18      -0.2456
     14  OD2      -10.4770    3.5040    0.7690 O.co2  18  ASP18      -0.2456
     15  C         -7.3040    3.3930   -0.4690 C.2    18  ASP18       0.2622
     16  O         -7.4930    4.4290   -1.1530 O.2    18  ASP18      -0.2715
     17  N         -6.6350    3.4290    0.6890 N.am   19  ILE19      -0.1963
     18  CA        -6.1350    4.6890    1.3090 C.3    19  ILE19       0.1727
     19  CB        -5.6040    4.3930    2.7640 C.3    19  ILE19       0.0290
     20  CG2       -4.2170    3.6840    2.7970 C.3    19  ILE19       0.0023
     21  CG1       -5.5280    5.7000    3.6000 C.3    19  ILE19       0.0022
     22  CD1       -5.4860    5.6870    5.1130 C.3    19  ILE19       0.0001
     23  C         -5.1070    5.4490    0.5370 C.2    19  ILE19       0.2616
     24  O         -5.1960    6.6560    0.4640 O.2    19  ILE19      -0.2715
     25  N         -4.2840    4.6940   -0.2350 N.am   20  ILE20      -0.1963
     26  CA        -3.4500    5.2380   -1.3280 C.3    20  ILE20       0.1727
     27  CB        -1.9560    5.2450   -0.9570 C.3    20  ILE20       0.0290
     28  CG2       -1.7080    6.3380    0.0690 C.3    20  ILE20       0.0023
     29  CG1       -1.3600    3.9820   -0.3460 C.3    20  ILE20       0.0022
     30  CD1        0.1990    3.7350   -0.5770 C.3    20  ILE20       0.0001
     31  C         -3.7190    4.5000   -2.6710 C.2    20  ILE20       0.2617
     32  O         -3.3930    3.3260   -2.8100 O.2    20  ILE20      -0.2715
     33  N         -4.3990    5.2200   -3.5400 N.am   21  TRP21      -0.1941
     34  CA        -4.8320    4.8230   -4.8440 C.3    21  TRP21       0.1982
     35  CB        -6.1240    4.0010   -4.7070 C.3    21  TRP21       0.0394
     36  CG        -6.3580    2.9820   -5.7480 C.3    21  TRP21       0.0475
     37  CD1       -7.0560    3.2340   -6.9070 C.3    21  TRP21       0.1166
     38  NE1       -7.0290    2.1090   -7.7360 N.pl3  21  TRP21      -0.2376
     39  CE2       -6.3000    1.0730   -7.1490 C.ar   21  TRP21       0.0614
     40  CZ2       -5.8740   -0.1620   -7.5750 C.ar   21  TRP21       0.0158
     41  CH2       -5.1360   -1.0060   -6.7390 C.ar   21  TRP21       0.0013
     42  CZ3       -4.8080   -0.5800   -5.4470 C.ar   21  TRP21      -0.0002
     43  CE3       -5.1980    0.7150   -5.0400 C.ar   21  TRP21      -0.0030
     44  CD2       -5.8780    1.5800   -5.8800 C.ar   21  TRP21      -0.0059
     45  C         -4.7330    5.9630   -5.8230 C.2    21  TRP21       0.3842
     46  O         -5.4460    6.9620   -5.6560 O.co2  21  TRP21      -0.2437
     47  OXT       -4.0270    5.7560   -6.8330 O.co2  21  TRP21      -0.2437
@<TRIPOS>BOND
     1    40    41   ar
     2    40    39   ar
     3    41    42   ar
     4    39    38    1
     5    39    44   ar
     6    42    43   ar
     7    38    37    1
     8    43    44   ar
     9    44    36    1
    10    37    36    1
    11    36    35    1
    12    47    45   ar
    13     5     4    1
    14    35    34    1
    15    45    34    1
    16    45    46   ar
    17    34    33    1
    18     8     7    2
    19     4     6    1
    20     4     3    1
    21     2     3    1
    22     2     1    1
    23     2     7    1
    24     7     9   am
    25    33    31   am
    26    32    31    2
    27    31    26    1
    28     9    10    1
    29    10    11    1
    30    10    15    1
    31    26    27    1
    32    26    25    1
    33    11    12    1
    34    13    12   ar
    35    27    29    1
    36    27    28    1
    37    29    30    1
    38    16    15    2
    39    15    17   am
    40    12    14   ar
    41    25    23   am
    42    17    18    1
    43    23    24    2
    44    23    18    1
    45    18    19    1
    46    19    21    1
    47    19    20    1
    48    21    22    1
@<TRIPOS>MOLECULE
16219006
 44 47 0 0 0
SMALL
GASTEIGER

@<TRIPOS>ATOM
      1 O          -6.9349    2.7805    2.9038 O.2     1  PRO11      -0.2738
      2 O          -2.7428    2.2417    2.0559 O.2     5  ASP55      -0.2735
      3 O          -4.0385   -0.6423    1.4796 O.2     2  VAL22      -0.2738
      4 O          -3.7899    4.0093   -2.3935 O.2     4  TRP44      -0.2738
      5 O          -6.5892    1.0358   -1.5035 O.2     3  LEU33      -0.2738
      6 OD1        -0.9654    5.2573    1.4646 O.co2   5  ASP55      -0.5497
      7 OD2         1.0609    4.2664    1.1293 O.co2   5  ASP55      -0.5497
      8 N          -4.1181    4.0089    1.7091 N.am    1  PRO11      -0.2884
      9 N          -5.0824    1.4643    3.1948 N.am    2  VAL22      -0.3022
     10 N          -2.8949    2.5045   -0.9081 N.am    5  ASP55      -0.3021
     11 N          -6.1867   -0.6674    0.7111 N.am    3  LEU33      -0.3025
     12 N          -4.4260    0.4703   -2.0149 N.am    4  TRP44      -0.3022
     13 NE1        -3.5483   -1.6902   -5.9326 N.ar    4  TRP44      -0.3604
     14 CA         -4.7496    3.8865    3.0221 C.3     1  PRO11       0.1023
     15 CB         -5.4712    5.2214    3.2218 C.3     1  PRO11      -0.0243
     16 CG         -5.7501    5.6945    1.7999 C.3     1  PRO11      -0.0350
     17 CD         -4.5133    5.2382    1.0441 C.3     1  PRO11       0.0156
     18 C          -5.7161    2.6820    3.0365 C.2     1  PRO11       0.2342
     19 C          -3.0207    3.2400    1.3759 C.2     5  ASP55       0.2369
     20 CA         -5.7795    0.2088    2.9749 C.3     2  VAL22       0.1017
     21 CA         -2.3257    3.5027    0.0175 C.3     5  ASP55       0.1047
     22 CB         -5.6715   -0.7694    4.1657 C.3     2  VAL22      -0.0197
     23 CA         -5.7594   -1.0619   -0.6240 C.3     3  LEU33       0.0996
     24 C          -5.2298   -0.4066    1.6717 C.2     2  VAL22       0.2342
     25 CB         -0.8237    3.2994    0.1239 C.3     5  ASP55       0.0138
     26 CA         -4.1890    1.6674   -2.8298 C.3     4  TRP44       0.1034
     27 CB         -6.7739   -1.9890   -1.3050 C.3     3  LEU33      -0.0236
     28 CG         -6.7598   -3.4399   -0.7767 C.3     3  LEU33      -0.0446
     29 C          -3.6666    2.8519   -1.9946 C.2     4  TRP44       0.2343
     30 CB         -3.1782    1.4015   -3.9577 C.3     4  TRP44       0.0013
     31 C          -5.6474    0.2481   -1.4237 C.2     3  LEU33       0.2340
     32 CG1        -6.4853   -0.2524    5.3583 C.3     2  VAL22      -0.0605
     33 CG2        -4.2369   -1.0589    4.6167 C.3     2  VAL22      -0.0605
     34 CG         -3.5665    0.2691   -4.8670 C.ar    4  TRP44      -0.0201
     35 CG         -0.1908    4.3781    0.9960 C.2     5  ASP55       0.0440
     36 CD1        -7.2758   -3.5635    0.6584 C.3     3  LEU33      -0.0626
     37 CD2        -7.6030   -4.3287   -1.6956 C.3     3  LEU33      -0.0626
     38 CD2        -4.7003    0.2076   -5.7424 C.ar    4  TRP44       0.0029
     39 CD1        -2.8794   -0.9203   -5.0209 C.ar    4  TRP44       0.0060
     40 CE2        -4.6676   -1.0319   -6.3832 C.ar    4  TRP44       0.0467
     41 CE3        -5.7576    1.0898   -6.0477 C.ar    4  TRP44      -0.0523
     42 CZ2        -5.6416   -1.4366   -7.3049 C.ar    4  TRP44      -0.0378
     43 CZ3        -6.7418    0.7000   -6.9637 C.ar    4  TRP44      -0.0611
     44 CH2        -6.6832   -0.5464   -7.5810 C.ar    4  TRP44      -0.0598
@<TRIPOS>BOND
     1     1    18    2
     2     2    19    2
     3     3    24    2
     4     4    29    2
     5     5    31    2
     6     6    35   ar
     7     7    35   ar
     8     8    14    1
     9     8    17    1
    10     8    19   am
    11     9    18   am
    12     9    20    1
    13    10    21    1
    14    10    29   am
    15    11    23    1
    16    11    24   am
    17    12    26    1
    18    12    31   am
    19    13    39   ar
    20    13    40   ar
    21    14    15    1
    22    14    18    1
    23    15    16    1
    24    16    17    1
    25    19    21    1
    26    20    22    1
    27    20    24    1
    28    21    25    1
    29    22    32    1
    30    22    33    1
    31    23    27    1
    32    23    31    1
    33    25    35    1
    34    26    29    1
    35    26    30    1
    36    27    28    1
    37    28    36    1
    38    28    37    1
    39    30    34    1
    40    34    38   ar
    41    34    39   ar
    42    38    40   ar
    43    38    41   ar
    44    40    42   ar
    45    41    43   ar
    46    42    44   ar
    47    43    44   ar
