@<TRIPOS>MOLECULE
ET1_17-21_50CONFORMERS.pdb
 47 48 0 0 0
SMALL
GASTEIGER

@<TRIPOS>ATOM
      1  N         -4.4120    0.0600   -1.0240 N.3    17  LEU17      -0.1231
      2  CA        -5.8150   -0.5190   -1.1630 C.3    17  LEU17       0.1693
      3  CB        -6.0380   -1.5180   -0.0370 C.3    17  LEU17       0.0284
      4  CG        -7.1840   -2.4290   -0.2350 C.3    17  LEU17       0.0019
      5  CD1       -6.7970   -3.5870   -1.1730 C.3    17  LEU17       0.0001
      6  CD2       -7.8660   -3.1100    0.9420 C.3    17  LEU17       0.0001
      7  C         -6.9320    0.5370   -1.3110 C.2    17  LEU17       0.2592
      8  O         -7.7610    0.4630   -2.2150 O.2    17  LEU17      -0.2718
      9  N         -7.1210    1.4070   -0.2900 N.am   18  ASP18      -0.1960
     10  CA        -8.2550    2.3870   -0.2680 C.3    18  ASP18       0.1840
     11  CB        -9.2220    2.1420    0.8650 C.3    18  ASP18       0.1450
     12  CG       -10.4510    3.0160    0.7920 C.2    18  ASP18       0.3671
     13  OD1      -11.1710    2.9190   -0.1710 O.co2  18  ASP18      -0.2456
     14  OD2      -10.5970    3.8410    1.7050 O.co2  18  ASP18      -0.2456
     15  C         -7.7530    3.7960   -0.1690 C.2    18  ASP18       0.2622
     16  O         -8.1350    4.6240   -0.9530 O.2    18  ASP18      -0.2715
     17  N         -6.9590    4.1300    0.8310 N.am   19  ILE19      -0.1963
     18  CA        -6.3530    5.4560    1.1480 C.3    19  ILE19       0.1727
     19  CB        -5.7050    5.4320    2.5820 C.3    19  ILE19       0.0290
     20  CG2       -4.5690    4.4470    2.6960 C.3    19  ILE19       0.0023
     21  CG1       -5.3120    6.7960    3.2120 C.3    19  ILE19       0.0022
     22  CD1       -6.5720    7.7280    3.3490 C.3    19  ILE19       0.0001
     23  C         -5.2830    6.0050    0.1410 C.2    19  ILE19       0.2616
     24  O         -5.0530    7.2120    0.0400 O.2    19  ILE19      -0.2715
     25  N         -4.5780    5.0880   -0.5010 N.am   20  ILE20      -0.1963
     26  CA        -3.7350    5.3890   -1.6400 C.3    20  ILE20       0.1727
     27  CB        -2.1810    5.4270   -1.2910 C.3    20  ILE20       0.0290
     28  CG2       -1.7020    6.8010   -0.7900 C.3    20  ILE20       0.0023
     29  CG1       -1.6700    4.3770   -0.2680 C.3    20  ILE20       0.0022
     30  CD1       -0.2050    4.1190   -0.3350 C.3    20  ILE20       0.0001
     31  C         -4.0940    4.4380   -2.7850 C.2    20  ILE20       0.2617
     32  O         -3.6300    3.2730   -2.7920 O.2    20  ILE20      -0.2715
     33  N         -4.8770    4.9360   -3.7880 N.am   21  TRP21      -0.1941
     34  CA        -5.3760    4.2020   -4.9720 C.3    21  TRP21       0.1982
     35  CB        -6.5390    3.3040   -4.4160 C.3    21  TRP21       0.0394
     36  CG        -7.2490    2.3830   -5.4230 C.3    21  TRP21       0.0475
     37  CD1       -8.3550    2.7960   -6.1520 C.3    21  TRP21       0.1166
     38  NE1       -8.8630    1.7830   -6.9380 N.pl3  21  TRP21      -0.2376
     39  CE2       -8.0920    0.6800   -6.7530 C.ar   21  TRP21       0.0614
     40  CZ2       -8.2090   -0.5880   -7.3570 C.ar   21  TRP21       0.0158
     41  CH2       -7.2400   -1.5830   -7.0600 C.ar   21  TRP21       0.0013
     42  CZ3       -6.2600   -1.2970   -6.0270 C.ar   21  TRP21      -0.0002
     43  CE3       -6.2230   -0.0490   -5.4100 C.ar   21  TRP21      -0.0030
     44  CD2       -7.0720    0.9930   -5.8380 C.ar   21  TRP21      -0.0059
     45  C         -5.7150    5.0760   -6.2070 C.2    21  TRP21       0.3842
     46  O         -6.4530    6.0880   -6.0380 O.co2  21  TRP21      -0.2437
     47  OXT       -5.3280    4.6980   -7.3490 O.co2  21  TRP21      -0.2437
@<TRIPOS>BOND
     1    40    41   ar
     2    40    39   ar
     3    41    42   ar
     4    39    38    1
     5    39    44   ar
     6    42    43   ar
     7    38    37    1
     8    43    44   ar
     9    44    36    1
    10    37    36    1
    11    36    35    1
    12    47    45   ar
    13     5     4    1
    14    35    34    1
    15    45    34    1
    16    45    46   ar
    17    34    33    1
    18     8     7    2
    19     4     6    1
    20     4     3    1
    21     2     3    1
    22     2     1    1
    23     2     7    1
    24     7     9   am
    25    33    31   am
    26    32    31    2
    27    31    26    1
    28     9    10    1
    29    10    11    1
    30    10    15    1
    31    26    27    1
    32    26    25    1
    33    11    12    1
    34    13    12   ar
    35    27    29    1
    36    27    28    1
    37    29    30    1
    38    16    15    2
    39    15    17   am
    40    12    14   ar
    41    25    23   am
    42    17    18    1
    43    23    24    2
    44    23    18    1
    45    18    19    1
    46    19    21    1
    47    19    20    1
    48    21    22    1
@<TRIPOS>MOLECULE
16219006
 44 47 0 0 0
SMALL
GASTEIGER

@<TRIPOS>ATOM
      1 O          -7.0538    3.3293    2.8058 O.2     1  PRO11      -0.2738
      2 O          -3.1031    3.0497    1.2329 O.2     5  ASP55      -0.2735
      3 O          -4.0830   -0.3676    1.7805 O.2     2  VAL22      -0.2738
      4 O          -4.9566    4.4204   -2.9974 O.2     4  TRP44      -0.2738
      5 O          -7.0141    1.5139   -1.1600 O.2     3  LEU33      -0.2738
      6 OD1        -1.7353    6.2069    0.4716 O.co2   5  ASP55      -0.5497
      7 OD2         0.1283    5.9563   -0.8170 O.co2   5  ASP55      -0.5497
      8 N          -4.6277    4.7221    1.0670 N.am    1  PRO11      -0.2884
      9 N          -5.0425    2.2532    2.9862 N.am    2  VAL22      -0.3022
     10 N          -3.5859    3.1712   -1.6400 N.am    5  ASP55      -0.3021
     11 N          -6.1998    0.0167    0.9946 N.am    3  LEU33      -0.3025
     12 N          -5.0635    0.9107   -2.1968 N.am    4  TRP44      -0.3022
     13 NE1        -4.6708   -1.6197   -5.9534 N.ar    4  TRP44      -0.3604
     14 CA         -5.0054    4.6442    2.4762 C.3     1  PRO11       0.1023
     15 CB         -5.8035    5.9262    2.7321 C.3     1  PRO11      -0.0243
     16 CG         -6.3447    6.2955    1.3567 C.3     1  PRO11      -0.0350
     17 CD         -5.2102    5.8909    0.4310 C.3     1  PRO11       0.0156
     18 C          -5.8257    3.3678    2.7702 C.2     1  PRO11       0.2342
     19 C          -3.5400    4.0172    0.5906 C.2     5  ASP55       0.2369
     20 CA         -5.6009    0.9218    3.1912 C.3     2  VAL22       0.1017
     21 CA         -3.0534    4.2978   -0.8548 C.3     5  ASP55       0.1047
     22 CB         -5.0638    0.2884    4.4934 C.3     2  VAL22      -0.0197
     23 CA         -5.9061   -0.4774   -0.3424 C.3     3  LEU33       0.0996
     24 C          -5.2038    0.1094    1.9447 C.2     2  VAL22       0.2342
     25 CB         -1.5366    4.3081   -0.9392 C.3     5  ASP55       0.0138
     26 CA         -5.1289    2.0143   -3.1627 C.3     4  TRP44       0.1034
     27 CB         -6.8864   -1.5672   -0.8010 C.3     3  LEU33      -0.0236
     28 CG         -6.6572   -2.9545   -0.1620 C.3     3  LEU33      -0.0446
     29 C          -4.6040    3.3284   -2.5552 C.2     4  TRP44       0.2343
     30 CB         -4.3201    1.7194   -4.4345 C.3     4  TRP44       0.0013
     31 C          -6.0559    0.7479   -1.2597 C.2     3  LEU33       0.2340
     32 CG1        -5.5321   -1.1630    4.6511 C.3     2  VAL22      -0.0605
     33 CG2        -5.5263    1.0915    5.7159 C.3     2  VAL22      -0.0605
     34 CG         -4.7274    0.4480   -5.1235 C.ar    4  TRP44      -0.0201
     35 CG         -1.0024    5.6162   -0.3681 C.2     5  ASP55       0.0440
     36 CD1        -7.0381   -3.0054    1.3180 C.3     3  LEU33      -0.0626
     37 CD2        -7.4671   -4.0115   -0.9200 C.3     3  LEU33      -0.0626
     38 CD2        -5.9905    0.1619   -5.7380 C.ar    4  TRP44       0.0029
     39 CD1        -3.9405   -0.6766   -5.2842 C.ar    4  TRP44       0.0060
     40 CE2        -5.9274   -1.1407   -6.2350 C.ar    4  TRP44       0.0467
     41 CE3        -7.1862    0.8883   -5.9131 C.ar    4  TRP44      -0.0523
     42 CZ2        -7.0024   -1.7561   -6.8894 C.ar    4  TRP44      -0.0378
     43 CZ3        -8.2711    0.2877   -6.5614 C.ar    4  TRP44      -0.0611
     44 CH2        -8.1775   -1.0170   -7.0404 C.ar    4  TRP44      -0.0598
@<TRIPOS>BOND
     1     1    18    2
     2     2    19    2
     3     3    24    2
     4     4    29    2
     5     5    31    2
     6     6    35   ar
     7     7    35   ar
     8     8    14    1
     9     8    17    1
    10     8    19   am
    11     9    18   am
    12     9    20    1
    13    10    21    1
    14    10    29   am
    15    11    23    1
    16    11    24   am
    17    12    26    1
    18    12    31   am
    19    13    39   ar
    20    13    40   ar
    21    14    15    1
    22    14    18    1
    23    15    16    1
    24    16    17    1
    25    19    21    1
    26    20    22    1
    27    20    24    1
    28    21    25    1
    29    22    32    1
    30    22    33    1
    31    23    27    1
    32    23    31    1
    33    25    35    1
    34    26    29    1
    35    26    30    1
    36    27    28    1
    37    28    36    1
    38    28    37    1
    39    30    34    1
    40    34    38   ar
    41    34    39   ar
    42    38    40   ar
    43    38    41   ar
    44    40    42   ar
    45    41    43   ar
    46    42    44   ar
    47    43    44   ar
