@<TRIPOS>MOLECULE
ET1_17-21_50CONFORMERS.pdb
 47 48 0 0 0
SMALL
GASTEIGER

@<TRIPOS>ATOM
      1  N         -4.5300    0.1590   -1.6710 N.3    17  LEU17      -0.1231
      2  CA        -5.5930   -0.7210   -2.1070 C.3    17  LEU17       0.1693
      3  CB        -5.9150   -1.7330   -0.9920 C.3    17  LEU17       0.0284
      4  CG        -6.7930   -2.9700   -1.3540 C.3    17  LEU17       0.0019
      5  CD1       -6.2140   -3.8230   -2.4370 C.3    17  LEU17       0.0001
      6  CD2       -7.0550   -3.8870   -0.1850 C.3    17  LEU17       0.0001
      7  C         -6.8580   -0.0060   -2.6050 C.2    17  LEU17       0.2592
      8  O         -7.4790   -0.4710   -3.5640 O.2    17  LEU17      -0.2718
      9  N         -7.3280    1.0080   -1.8550 N.am   18  ASP18      -0.1960
     10  CA        -8.5650    1.7140   -2.1340 C.3    18  ASP18       0.1840
     11  CB        -9.7450    0.9120   -1.6490 C.3    18  ASP18       0.1450
     12  CG       -11.0620    1.5030   -2.1540 C.2    18  ASP18       0.3671
     13  OD1      -11.8300    2.0300   -1.2950 O.co2  18  ASP18      -0.2456
     14  OD2      -11.3540    1.6480   -3.3860 O.co2  18  ASP18      -0.2456
     15  C         -8.5690    3.1210   -1.4650 C.2    18  ASP18       0.2622
     16  O         -8.8170    4.0880   -2.1790 O.2    18  ASP18      -0.2715
     17  N         -8.3590    3.1990   -0.1590 N.am   19  ILE19      -0.1963
     18  CA        -8.2060    4.4460    0.7240 C.3    19  ILE19       0.1727
     19  CB        -8.1330    4.0200    2.2160 C.3    19  ILE19       0.0290
     20  CG2       -7.8130    5.2060    3.2120 C.3    19  ILE19       0.0023
     21  CG1       -9.3630    3.2270    2.7510 C.3    19  ILE19       0.0022
     22  CD1      -10.7540    3.8490    2.3780 C.3    19  ILE19       0.0001
     23  C         -6.9690    5.2450    0.2790 C.2    19  ILE19       0.2616
     24  O         -7.0590    6.3590   -0.0630 O.2    19  ILE19      -0.2715
     25  N         -5.7500    4.6960    0.2020 N.am   20  ILE20      -0.1963
     26  CA        -4.5220    5.3510   -0.3470 C.3    20  ILE20       0.1727
     27  CB        -3.2600    4.8240    0.3520 C.3    20  ILE20       0.0290
     28  CG2       -1.9660    5.1870   -0.3850 C.3    20  ILE20       0.0023
     29  CG1       -3.0540    5.1300    1.8350 C.3    20  ILE20       0.0022
     30  CD1       -3.6990    4.1430    2.8550 C.3    20  ILE20       0.0001
     31  C         -4.5660    4.8880   -1.8040 C.2    20  ILE20       0.2617
     32  O         -4.5390    3.6220   -2.1030 O.2    20  ILE20      -0.2715
     33  N         -4.8940    5.7710   -2.6950 N.am   21  TRP21      -0.1941
     34  CA        -5.1590    5.4550   -4.0940 C.3    21  TRP21       0.1982
     35  CB        -6.5710    4.8500   -4.2780 C.3    21  TRP21       0.0394
     36  CG        -6.9860    4.2470   -5.5640 C.3    21  TRP21       0.0475
     37  CD1       -7.6890    4.8410   -6.5160 C.3    21  TRP21       0.1166
     38  NE1       -8.1330    3.9500   -7.4630 N.pl3  21  TRP21      -0.2376
     39  CE2       -7.5380    2.7170   -7.2510 C.ar   21  TRP21       0.0614
     40  CZ2       -7.6290    1.4500   -7.9070 C.ar   21  TRP21       0.0158
     41  CH2       -6.8640    0.4030   -7.4010 C.ar   21  TRP21       0.0013
     42  CZ3       -6.2010    0.4890   -6.1600 C.ar   21  TRP21      -0.0002
     43  CE3       -6.2390    1.7600   -5.4750 C.ar   21  TRP21      -0.0030
     44  CD2       -6.8380    2.9140   -6.0230 C.ar   21  TRP21      -0.0059
     45  C         -4.9400    6.5200   -5.1300 C.2    21  TRP21       0.3842
     46  O         -3.9390    6.3340   -5.8270 O.co2  21  TRP21      -0.2437
     47  OXT       -5.6270    7.5910   -5.1180 O.co2  21  TRP21      -0.2437
@<TRIPOS>BOND
     1    40    41   ar
     2    40    39   ar
     3    41    42   ar
     4    39    38    1
     5    39    44   ar
     6    42    43   ar
     7    38    37    1
     8    43    44   ar
     9    44    36    1
    10    37    36    1
    11    36    35    1
    12    47    45   ar
    13     5     4    1
    14    35    34    1
    15    45    34    1
    16    45    46   ar
    17    34    33    1
    18     8     7    2
    19     4     6    1
    20     4     3    1
    21     2     3    1
    22     2     1    1
    23     2     7    1
    24     7     9   am
    25    33    31   am
    26    32    31    2
    27    31    26    1
    28     9    10    1
    29    10    11    1
    30    10    15    1
    31    26    27    1
    32    26    25    1
    33    11    12    1
    34    13    12   ar
    35    27    29    1
    36    27    28    1
    37    29    30    1
    38    16    15    2
    39    15    17   am
    40    12    14   ar
    41    25    23   am
    42    17    18    1
    43    23    24    2
    44    23    18    1
    45    18    19    1
    46    19    21    1
    47    19    20    1
    48    21    22    1
@<TRIPOS>MOLECULE
16219006
 44 47 0 0 0
SMALL
GASTEIGER

@<TRIPOS>ATOM
      1 O          -8.4557    1.5500    2.9971 O.2     1  PRO11      -0.2738
      2 O          -4.4495    2.8057    1.9974 O.2     5  ASP55      -0.2735
      3 O          -4.4942   -0.5678    1.1264 O.2     2  VAL22      -0.2738
      4 O          -6.3180    4.8821   -1.9796 O.2     4  TRP44      -0.2738
      5 O          -7.6603    1.0837   -1.4700 O.2     3  LEU33      -0.2738
      6 OD1        -3.9956    6.3596    2.1492 O.co2   5  ASP55      -0.5497
      7 OD2        -1.7472    6.2351    1.7884 O.co2   5  ASP55      -0.5497
      8 N          -6.3907    3.9779    2.0167 N.am    1  PRO11      -0.2884
      9 N          -6.2259    1.0346    2.9831 N.am    2  VAL22      -0.3022
     10 N          -4.7908    3.6192   -0.8173 N.am    5  ASP55      -0.3021
     11 N          -6.5918   -0.8057    0.2522 N.am    3  LEU33      -0.3025
     12 N          -5.5290    1.3701   -2.2551 N.am    4  TRP44      -0.3022
     13 NE1        -4.1714    0.3785   -6.4850 N.ar    4  TRP44      -0.3604
     14 CA         -6.8466    3.3843    3.2734 C.3     1  PRO11       0.1023
     15 CB         -7.9989    4.2859    3.7249 C.3     1  PRO11      -0.0243
     16 CG         -8.5187    4.8820    2.4225 C.3     1  PRO11      -0.0350
     17 CD         -7.2476    5.0796    1.6139 C.3     1  PRO11       0.0156
     18 C          -7.2838    1.9152    3.0699 C.2     1  PRO11       0.2342
     19 C          -5.1092    3.7573    1.5530 C.2     5  ASP55       0.2369
     20 CA         -6.3899   -0.3757    2.6634 C.3     2  VAL22       0.1017
     21 CA         -4.6236    4.5494    0.3137 C.3     5  ASP55       0.1047
     22 CB         -5.8655   -1.2801    3.8001 C.3     2  VAL22      -0.0197
     23 CA         -6.1101   -0.7400   -1.1211 C.3     3  LEU33       0.0996
     24 C          -5.7102   -0.6114    1.2988 C.2     2  VAL22       0.2342
     25 CB         -3.1579    4.9254    0.4497 C.3     5  ASP55       0.0138
     26 CA         -5.8162    2.6825   -2.8468 C.3     4  TRP44       0.1034
     27 CB         -6.7539   -1.8024   -2.0229 C.3     3  LEU33      -0.0236
     28 CG         -6.1850   -3.2259   -1.8401 C.3     3  LEU33      -0.0446
     29 C          -5.7250    3.8180   -1.8096 C.2     4  TRP44       0.2343
     30 CB         -4.8565    3.0145   -4.0005 C.3     4  TRP44       0.0013
     31 C          -6.5182    0.6554   -1.6225 C.2     3  LEU33       0.2340
     32 CG1        -4.3891   -1.0806    4.1528 C.3     2  VAL22      -0.0605
     33 CG2        -6.1361   -2.7573    3.5007 C.3     2  VAL22      -0.0605
     34 CG         -4.8498    1.9847   -5.0947 C.ar    4  TRP44      -0.0201
     35 CG         -2.9554    5.9334    1.5754 C.2     5  ASP55       0.0440
     36 CD1        -6.5563   -3.8518   -0.4957 C.3     3  LEU33      -0.0626
     37 CD2        -6.6841   -4.1305   -2.9711 C.3     3  LEU33      -0.0626
     38 CD2        -5.9318    1.6442   -5.9709 C.ar    4  TRP44       0.0029
     39 CD1        -3.7812    1.1835   -5.4500 C.ar    4  TRP44       0.0060
     40 CE2        -5.4809    0.6311   -6.8183 C.ar    4  TRP44       0.0467
     41 CE3        -7.2581    2.1001   -6.1206 C.ar    4  TRP44      -0.0523
     42 CZ2        -6.2902    0.0463   -7.8005 C.ar    4  TRP44      -0.0378
     43 CZ3        -8.0822    1.5238   -7.0943 C.ar    4  TRP44      -0.0611
     44 CH2        -7.6030    0.5108   -7.9203 C.ar    4  TRP44      -0.0598
@<TRIPOS>BOND
     1     1    18    2
     2     2    19    2
     3     3    24    2
     4     4    29    2
     5     5    31    2
     6     6    35   ar
     7     7    35   ar
     8     8    14    1
     9     8    17    1
    10     8    19   am
    11     9    18   am
    12     9    20    1
    13    10    21    1
    14    10    29   am
    15    11    23    1
    16    11    24   am
    17    12    26    1
    18    12    31   am
    19    13    39   ar
    20    13    40   ar
    21    14    15    1
    22    14    18    1
    23    15    16    1
    24    16    17    1
    25    19    21    1
    26    20    22    1
    27    20    24    1
    28    21    25    1
    29    22    32    1
    30    22    33    1
    31    23    27    1
    32    23    31    1
    33    25    35    1
    34    26    29    1
    35    26    30    1
    36    27    28    1
    37    28    36    1
    38    28    37    1
    39    30    34    1
    40    34    38   ar
    41    34    39   ar
    42    38    40   ar
    43    38    41   ar
    44    40    42   ar
    45    41    43   ar
    46    42    44   ar
    47    43    44   ar
