@<TRIPOS>MOLECULE
ET1_17-21_50CONFORMERS.pdb
 47 48 0 0 0
SMALL
GASTEIGER

@<TRIPOS>ATOM
      1  N         -4.8380    0.2190   -1.4500 N.3    17  LEU17      -0.1231
      2  CA        -6.1180   -0.4840   -1.5530 C.3    17  LEU17       0.1693
      3  CB        -6.0690   -1.5340   -0.4290 C.3    17  LEU17       0.0284
      4  CG        -7.4460   -2.3870   -0.3620 C.3    17  LEU17       0.0019
      5  CD1       -7.8390   -3.1540   -1.6370 C.3    17  LEU17       0.0001
      6  CD2       -7.3840   -3.4030    0.8280 C.3    17  LEU17       0.0001
      7  C         -7.2430    0.4490   -1.2720 C.2    17  LEU17       0.2592
      8  O         -8.1430    0.4820   -2.1170 O.2    17  LEU17      -0.2718
      9  N         -7.2740    1.1700   -0.1630 N.am   18  ASP18      -0.1960
     10  CA        -8.4090    1.9290    0.4120 C.3    18  ASP18       0.1840
     11  CB        -9.1170    0.9980    1.4200 C.3    18  ASP18       0.1450
     12  CG       -10.4570    1.5230    1.8190 C.2    18  ASP18       0.3671
     13  OD1      -11.4330    1.0230    1.2040 O.co2  18  ASP18      -0.2456
     14  OD2      -10.4760    2.4590    2.6900 O.co2  18  ASP18      -0.2456
     15  C         -8.0090    3.3420    0.8700 C.2    18  ASP18       0.2622
     16  O         -8.4650    4.3500    0.2810 O.2    18  ASP18      -0.2715
     17  N         -7.0310    3.4560    1.7660 N.am   19  ILE19      -0.1963
     18  CA        -6.4400    4.7140    2.2270 C.3    19  ILE19       0.1727
     19  CB        -5.4400    4.5410    3.4180 C.3    19  ILE19       0.0290
     20  CG2       -4.7070    5.8630    3.7870 C.3    19  ILE19       0.0023
     21  CG1       -6.0250    3.8070    4.6680 C.3    19  ILE19       0.0022
     22  CD1       -7.2770    4.5760    5.2140 C.3    19  ILE19       0.0001
     23  C         -5.7030    5.4830    1.0410 C.2    19  ILE19       0.2616
     24  O         -5.8800    6.7320    0.9460 O.2    19  ILE19      -0.2715
     25  N         -4.8740    4.8150    0.2290 N.am   20  ILE20      -0.1963
     26  CA        -4.3690    5.4790   -1.0000 C.3    20  ILE20       0.1727
     27  CB        -2.8920    5.8920   -0.7660 C.3    20  ILE20       0.0290
     28  CG2       -2.8650    7.1560    0.1470 C.3    20  ILE20       0.0023
     29  CG1       -1.9340    4.8790   -0.1830 C.3    20  ILE20       0.0022
     30  CD1       -0.4350    5.3070   -0.1380 C.3    20  ILE20       0.0001
     31  C         -4.5040    4.6100   -2.2710 C.2    20  ILE20       0.2617
     32  O         -4.8620    3.4090   -2.1590 O.2    20  ILE20      -0.2715
     33  N         -4.2840    5.2770   -3.4300 N.am   21  TRP21      -0.1941
     34  CA        -4.1630    4.6270   -4.7570 C.3    21  TRP21       0.1982
     35  CB        -5.5320    4.7740   -5.4590 C.3    21  TRP21       0.0394
     36  CG        -6.5470    3.7050   -5.2780 C.3    21  TRP21       0.0475
     37  CD1       -7.2530    3.5580   -4.1800 C.3    21  TRP21       0.1166
     38  NE1       -8.0440    2.4430   -4.2810 N.pl3  21  TRP21      -0.2376
     39  CE2       -8.0940    1.9430   -5.5820 C.ar   21  TRP21       0.0614
     40  CZ2       -8.8120    0.9040   -6.2120 C.ar   21  TRP21       0.0158
     41  CH2       -8.5650    0.7020   -7.5970 C.ar   21  TRP21       0.0013
     42  CZ3       -7.6360    1.4850   -8.2850 C.ar   21  TRP21      -0.0002
     43  CE3       -6.8670    2.4090   -7.5480 C.ar   21  TRP21      -0.0030
     44  CD2       -7.0830    2.7280   -6.2060 C.ar   21  TRP21      -0.0059
     45  C         -3.0270    5.2180   -5.5660 C.2    21  TRP21       0.3842
     46  O         -3.1020    6.3970   -5.9350 O.co2  21  TRP21      -0.2437
     47  OXT       -2.0770    4.5110   -5.9220 O.co2  21  TRP21      -0.2437
@<TRIPOS>BOND
     1    40    41   ar
     2    40    39   ar
     3    41    42   ar
     4    39    38    1
     5    39    44   ar
     6    42    43   ar
     7    38    37    1
     8    43    44   ar
     9    44    36    1
    10    37    36    1
    11    36    35    1
    12    47    45   ar
    13     5     4    1
    14    35    34    1
    15    45    34    1
    16    45    46   ar
    17    34    33    1
    18     8     7    2
    19     4     6    1
    20     4     3    1
    21     2     3    1
    22     2     1    1
    23     2     7    1
    24     7     9   am
    25    33    31   am
    26    32    31    2
    27    31    26    1
    28     9    10    1
    29    10    11    1
    30    10    15    1
    31    26    27    1
    32    26    25    1
    33    11    12    1
    34    13    12   ar
    35    27    29    1
    36    27    28    1
    37    29    30    1
    38    16    15    2
    39    15    17   am
    40    12    14   ar
    41    25    23   am
    42    17    18    1
    43    23    24    2
    44    23    18    1
    45    18    19    1
    46    19    21    1
    47    19    20    1
    48    21    22    1
@<TRIPOS>MOLECULE
16219006
 44 47 0 0 0
SMALL
GASTEIGER

@<TRIPOS>ATOM
      1 O          -6.8559    1.6076    2.6556 O.2     1  PRO11      -0.2738
      2 O          -9.2001    4.4060    0.5076 O.2     5  ASP55      -0.2735
      3 O          -6.1967    6.0319    0.9219 O.2     2  VAL22      -0.2738
      4 O          -8.3460    1.3829   -2.9022 O.2     4  TRP44      -0.2738
      5 O          -4.8705    2.3582   -1.6007 O.2     3  LEU33      -0.2738
      6 OD1       -12.4686    2.8807   -0.6525 O.co2   5  ASP55      -0.5497
      7 OD2       -13.1112    5.0235   -1.0904 O.co2   5  ASP55      -0.5497
      8 N          -9.4167    2.1602    0.7093 N.am    1  PRO11      -0.2884
      9 N          -7.4132    3.8237    2.5129 N.am    2  VAL22      -0.3022
     10 N          -8.7279    3.5476   -2.2427 N.am    5  ASP55      -0.3021
     11 N          -4.8294    4.2447    0.5141 N.am    3  LEU33      -0.3025
     12 N          -5.9859    4.0050   -2.7524 N.am    4  TRP44      -0.3022
     13 NE1        -9.2789    1.5872   -6.9774 N.ar    4  TRP44      -0.3604
     14 CA         -9.1903    2.1777    2.1521 C.3     1  PRO11       0.1023
     15 CB         -9.6230    0.7868    2.6243 C.3     1  PRO11      -0.0243
     16 CG         -9.4425   -0.0868    1.3893 C.3     1  PRO11      -0.0350
     17 CD         -9.8404    0.8447    0.2580 C.3     1  PRO11       0.0156
     18 C          -7.7080    2.4749    2.4731 C.2     1  PRO11       0.2342
     19 C          -9.5588    3.3348    0.0013 C.2     5  ASP55       0.2369
     20 CA         -6.0481    4.3182    2.6480 C.3     2  VAL22       0.1017
     21 CA         -9.9622    3.2604   -1.4917 C.3     5  ASP55       0.1047
     22 CB         -5.9263    5.3434    3.7973 C.3     2  VAL22      -0.0197
     23 CA         -4.5572    4.6446   -0.8591 C.3     3  LEU33       0.0996
     24 C          -5.7038    4.9688    1.2947 C.2     2  VAL22       0.2342
     25 CB        -10.9966    4.3240   -1.8217 C.3     5  ASP55       0.0138
     26 CA         -6.7303    3.0578   -3.6020 C.3     4  TRP44       0.1034
     27 CB         -3.0537    4.7799   -1.1258 C.3     3  LEU33      -0.0236
     28 CG         -2.3497    5.8821   -0.3060 C.3     3  LEU33      -0.0446
     29 C          -7.9772    2.5540   -2.8388 C.2     4  TRP44       0.2343
     30 CB         -7.1349    3.7550   -4.9129 C.3     4  TRP44       0.0013
     31 C          -5.1419    3.5457   -1.7621 C.2     3  LEU33       0.2340
     32 CG1        -4.5027    5.9104    3.8842 C.3     2  VAL22      -0.0605
     33 CG2        -6.2914    4.7115    5.1458 C.3     2  VAL22      -0.0605
     34 CG         -7.7739    2.8638   -5.9345 C.ar    4  TRP44      -0.0201
     35 CG        -12.3139    4.0446   -1.1120 C.2     5  ASP55       0.0440
     36 CD1        -0.8548    5.8930   -0.6375 C.3     3  LEU33      -0.0626
     37 CD2        -2.9379    7.2722   -0.5548 C.3     3  LEU33      -0.0626
     38 CD2        -7.2080    2.3909   -7.1640 C.ar    4  TRP44       0.0029
     39 CD1        -9.0631    2.3698   -5.8790 C.ar    4  TRP44       0.0060
     40 CE2        -8.1738    1.6029   -7.7943 C.ar    4  TRP44       0.0467
     41 CE3        -5.9651    2.5636   -7.8088 C.ar    4  TRP44      -0.0523
     42 CZ2        -7.9616    0.9814   -9.0306 C.ar    4  TRP44      -0.0378
     43 CZ3        -5.7390    1.9557   -9.0503 C.ar    4  TRP44      -0.0611
     44 CH2        -6.7249    1.1764   -9.6504 C.ar    4  TRP44      -0.0598
@<TRIPOS>BOND
     1     1    18    2
     2     2    19    2
     3     3    24    2
     4     4    29    2
     5     5    31    2
     6     6    35   ar
     7     7    35   ar
     8     8    14    1
     9     8    17    1
    10     8    19   am
    11     9    18   am
    12     9    20    1
    13    10    21    1
    14    10    29   am
    15    11    23    1
    16    11    24   am
    17    12    26    1
    18    12    31   am
    19    13    39   ar
    20    13    40   ar
    21    14    15    1
    22    14    18    1
    23    15    16    1
    24    16    17    1
    25    19    21    1
    26    20    22    1
    27    20    24    1
    28    21    25    1
    29    22    32    1
    30    22    33    1
    31    23    27    1
    32    23    31    1
    33    25    35    1
    34    26    29    1
    35    26    30    1
    36    27    28    1
    37    28    36    1
    38    28    37    1
    39    30    34    1
    40    34    38   ar
    41    34    39   ar
    42    38    40   ar
    43    38    41   ar
    44    40    42   ar
    45    41    43   ar
    46    42    44   ar
    47    43    44   ar
