@<TRIPOS>MOLECULE
ET1_17-21_50CONFORMERS.pdb
 47 48 0 0 0
SMALL
GASTEIGER

@<TRIPOS>ATOM
      1  N         -4.5300    0.1590   -1.6710 N.3    17  LEU17      -0.1231
      2  CA        -5.5930   -0.7210   -2.1070 C.3    17  LEU17       0.1693
      3  CB        -5.9150   -1.7330   -0.9920 C.3    17  LEU17       0.0284
      4  CG        -6.7930   -2.9700   -1.3540 C.3    17  LEU17       0.0019
      5  CD1       -6.2140   -3.8230   -2.4370 C.3    17  LEU17       0.0001
      6  CD2       -7.0550   -3.8870   -0.1850 C.3    17  LEU17       0.0001
      7  C         -6.8580   -0.0060   -2.6050 C.2    17  LEU17       0.2592
      8  O         -7.4790   -0.4710   -3.5640 O.2    17  LEU17      -0.2718
      9  N         -7.3280    1.0080   -1.8550 N.am   18  ASP18      -0.1960
     10  CA        -8.5650    1.7140   -2.1340 C.3    18  ASP18       0.1840
     11  CB        -9.7450    0.9120   -1.6490 C.3    18  ASP18       0.1450
     12  CG       -11.0620    1.5030   -2.1540 C.2    18  ASP18       0.3671
     13  OD1      -11.8300    2.0300   -1.2950 O.co2  18  ASP18      -0.2456
     14  OD2      -11.3540    1.6480   -3.3860 O.co2  18  ASP18      -0.2456
     15  C         -8.5690    3.1210   -1.4650 C.2    18  ASP18       0.2622
     16  O         -8.8170    4.0880   -2.1790 O.2    18  ASP18      -0.2715
     17  N         -8.3590    3.1990   -0.1590 N.am   19  ILE19      -0.1963
     18  CA        -8.2060    4.4460    0.7240 C.3    19  ILE19       0.1727
     19  CB        -8.1330    4.0200    2.2160 C.3    19  ILE19       0.0290
     20  CG2       -7.8130    5.2060    3.2120 C.3    19  ILE19       0.0023
     21  CG1       -9.3630    3.2270    2.7510 C.3    19  ILE19       0.0022
     22  CD1      -10.7540    3.8490    2.3780 C.3    19  ILE19       0.0001
     23  C         -6.9690    5.2450    0.2790 C.2    19  ILE19       0.2616
     24  O         -7.0590    6.3590   -0.0630 O.2    19  ILE19      -0.2715
     25  N         -5.7500    4.6960    0.2020 N.am   20  ILE20      -0.1963
     26  CA        -4.5220    5.3510   -0.3470 C.3    20  ILE20       0.1727
     27  CB        -3.2600    4.8240    0.3520 C.3    20  ILE20       0.0290
     28  CG2       -1.9660    5.1870   -0.3850 C.3    20  ILE20       0.0023
     29  CG1       -3.0540    5.1300    1.8350 C.3    20  ILE20       0.0022
     30  CD1       -3.6990    4.1430    2.8550 C.3    20  ILE20       0.0001
     31  C         -4.5660    4.8880   -1.8040 C.2    20  ILE20       0.2617
     32  O         -4.5390    3.6220   -2.1030 O.2    20  ILE20      -0.2715
     33  N         -4.8940    5.7710   -2.6950 N.am   21  TRP21      -0.1941
     34  CA        -5.1590    5.4550   -4.0940 C.3    21  TRP21       0.1982
     35  CB        -6.5710    4.8500   -4.2780 C.3    21  TRP21       0.0394
     36  CG        -6.9860    4.2470   -5.5640 C.3    21  TRP21       0.0475
     37  CD1       -7.6890    4.8410   -6.5160 C.3    21  TRP21       0.1166
     38  NE1       -8.1330    3.9500   -7.4630 N.pl3  21  TRP21      -0.2376
     39  CE2       -7.5380    2.7170   -7.2510 C.ar   21  TRP21       0.0614
     40  CZ2       -7.6290    1.4500   -7.9070 C.ar   21  TRP21       0.0158
     41  CH2       -6.8640    0.4030   -7.4010 C.ar   21  TRP21       0.0013
     42  CZ3       -6.2010    0.4890   -6.1600 C.ar   21  TRP21      -0.0002
     43  CE3       -6.2390    1.7600   -5.4750 C.ar   21  TRP21      -0.0030
     44  CD2       -6.8380    2.9140   -6.0230 C.ar   21  TRP21      -0.0059
     45  C         -4.9400    6.5200   -5.1300 C.2    21  TRP21       0.3842
     46  O         -3.9390    6.3340   -5.8270 O.co2  21  TRP21      -0.2437
     47  OXT       -5.6270    7.5910   -5.1180 O.co2  21  TRP21      -0.2437
@<TRIPOS>BOND
     1    40    41   ar
     2    40    39   ar
     3    41    42   ar
     4    39    38    1
     5    39    44   ar
     6    42    43   ar
     7    38    37    1
     8    43    44   ar
     9    44    36    1
    10    37    36    1
    11    36    35    1
    12    47    45   ar
    13     5     4    1
    14    35    34    1
    15    45    34    1
    16    45    46   ar
    17    34    33    1
    18     8     7    2
    19     4     6    1
    20     4     3    1
    21     2     3    1
    22     2     1    1
    23     2     7    1
    24     7     9   am
    25    33    31   am
    26    32    31    2
    27    31    26    1
    28     9    10    1
    29    10    11    1
    30    10    15    1
    31    26    27    1
    32    26    25    1
    33    11    12    1
    34    13    12   ar
    35    27    29    1
    36    27    28    1
    37    29    30    1
    38    16    15    2
    39    15    17   am
    40    12    14   ar
    41    25    23   am
    42    17    18    1
    43    23    24    2
    44    23    18    1
    45    18    19    1
    46    19    21    1
    47    19    20    1
    48    21    22    1
@<TRIPOS>MOLECULE
16219006
 44 47 0 0 0
SMALL
GASTEIGER

@<TRIPOS>ATOM
      1 O          -8.4571    1.5610    2.8063 O.2     1  PRO11      -0.2738
      2 O          -4.4573    2.7986    1.9637 O.2     5  ASP55      -0.2735
      3 O          -4.5028   -0.5489    1.0956 O.2     2  VAL22      -0.2738
      4 O          -6.3090    4.8953   -2.0058 O.2     4  TRP44      -0.2738
      5 O          -7.6742    1.0622   -1.5752 O.2     3  LEU33      -0.2738
      6 OD1        -3.9915    6.3632    2.1262 O.co2   5  ASP55      -0.5497
      7 OD2        -1.7440    6.2499    1.7517 O.co2   5  ASP55      -0.5497
      8 N          -6.3892    3.9847    1.9913 N.am    1  PRO11      -0.2884
      9 N          -6.2405    1.0116    2.9802 N.am    2  VAL22      -0.3022
     10 N          -4.7899    3.6261   -0.8425 N.am    5  ASP55      -0.3021
     11 N          -6.5929   -0.7842    0.2039 N.am    3  LEU33      -0.3025
     12 N          -5.5209    1.3834   -2.2910 N.am    4  TRP44      -0.3022
     13 NE1        -4.1555    0.4105   -6.5266 N.ar    4  TRP44      -0.3604
     14 CA         -6.8523    3.3681    3.2327 C.3     1  PRO11       0.1023
     15 CB         -8.0085    4.2588    3.6951 C.3     1  PRO11      -0.0243
     16 CG         -8.5144    4.8911    2.4044 C.3     1  PRO11      -0.0350
     17 CD         -7.2370    5.0995    1.6076 C.3     1  PRO11       0.0156
     18 C          -7.2914    1.9064    2.9896 C.2     1  PRO11       0.2342
     19 C          -5.1109    3.7584    1.5259 C.2     5  ASP55       0.2369
     20 CA         -6.4093   -0.3897    2.6219 C.3     2  VAL22       0.1017
     21 CA         -4.6217    4.5554    0.2904 C.3     5  ASP55       0.1047
     22 CB         -5.9040   -1.3282    3.7407 C.3     2  VAL22      -0.0197
     23 CA         -6.1017   -0.7324   -1.1663 C.3     3  LEU33       0.0996
     24 C          -5.7198   -0.5984    1.2580 C.2     2  VAL22       0.2342
     25 CB         -3.1561    4.9293    0.4251 C.3     5  ASP55       0.0138
     26 CA         -5.8068    2.6972   -2.8785 C.3     4  TRP44       0.1034
     27 CB         -6.7279   -1.8151   -2.0578 C.3     3  LEU33      -0.0236
     28 CG         -6.1768   -3.2379   -1.8218 C.3     3  LEU33      -0.0446
     29 C          -5.7193    3.8297   -1.8385 C.2     4  TRP44       0.2343
     30 CB         -4.8436    3.0335   -4.0286 C.3     4  TRP44       0.0013
     31 C          -6.5197    0.6551   -1.6912 C.2     3  LEU33       0.2340
     32 CG1        -4.4280   -1.1584    4.1075 C.3     2  VAL22      -0.0605
     33 CG2        -6.1921   -2.7946    3.4074 C.3     2  VAL22      -0.0605
     34 CG         -4.8359    2.0088   -5.1276 C.ar    4  TRP44      -0.0201
     35 CG         -2.9523    5.9414    1.5475 C.2     5  ASP55       0.0440
     36 CD1        -6.5979   -3.8283   -0.4763 C.3     3  LEU33      -0.0626
     37 CD2        -6.6452   -4.1677   -2.9448 C.3     3  LEU33      -0.0626
     38 CD2        -5.9205    1.6640   -5.9995 C.ar    4  TRP44       0.0029
     39 CD1        -3.7642    1.2157   -5.4917 C.ar    4  TRP44       0.0060
     40 CE2        -5.4688    0.6553   -6.8508 C.ar    4  TRP44       0.0467
     41 CE3        -7.2504    2.1125   -6.1403 C.ar    4  TRP44      -0.0523
     42 CZ2        -6.2807    0.0661   -7.8284 C.ar    4  TRP44      -0.0378
     43 CZ3        -8.0771    1.5317   -7.1092 C.ar    4  TRP44      -0.0611
     44 CH2        -7.5969    0.5224   -7.9395 C.ar    4  TRP44      -0.0598
@<TRIPOS>BOND
     1     1    18    2
     2     2    19    2
     3     3    24    2
     4     4    29    2
     5     5    31    2
     6     6    35   ar
     7     7    35   ar
     8     8    14    1
     9     8    17    1
    10     8    19   am
    11     9    18   am
    12     9    20    1
    13    10    21    1
    14    10    29   am
    15    11    23    1
    16    11    24   am
    17    12    26    1
    18    12    31   am
    19    13    39   ar
    20    13    40   ar
    21    14    15    1
    22    14    18    1
    23    15    16    1
    24    16    17    1
    25    19    21    1
    26    20    22    1
    27    20    24    1
    28    21    25    1
    29    22    32    1
    30    22    33    1
    31    23    27    1
    32    23    31    1
    33    25    35    1
    34    26    29    1
    35    26    30    1
    36    27    28    1
    37    28    36    1
    38    28    37    1
    39    30    34    1
    40    34    38   ar
    41    34    39   ar
    42    38    40   ar
    43    38    41   ar
    44    40    42   ar
    45    41    43   ar
    46    42    44   ar
    47    43    44   ar
