@<TRIPOS>MOLECULE
ET1_17-21_50CONFORMERS.pdb
 47 48 0 0 0
SMALL
GASTEIGER

@<TRIPOS>ATOM
      1  N         -4.2010   -0.1720   -1.7670 N.3    17  LEU17      -0.1231
      2  CA        -5.4580   -0.8500   -1.9110 C.3    17  LEU17       0.1693
      3  CB        -5.6560   -2.0130   -0.9140 C.3    17  LEU17       0.0284
      4  CG        -7.0430   -2.5080   -0.6020 C.3    17  LEU17       0.0019
      5  CD1       -7.7900   -3.0040   -1.8120 C.3    17  LEU17       0.0001
      6  CD2       -7.1720   -3.5500    0.4900 C.3    17  LEU17       0.0001
      7  C         -6.6890    0.1240   -1.9280 C.2    17  LEU17       0.2592
      8  O         -7.5330    0.1470   -2.8350 O.2    17  LEU17      -0.2718
      9  N         -6.7310    1.0230   -0.9570 N.am   18  ASP18      -0.1960
     10  CA        -7.8670    2.0040   -0.9130 C.3    18  ASP18       0.1840
     11  CB        -8.8680    1.4860    0.1670 C.3    18  ASP18       0.1450
     12  CG       -10.2320    2.1200   -0.0550 C.2    18  ASP18       0.3671
     13  OD1      -10.8920    1.6370   -1.0120 O.co2  18  ASP18      -0.2456
     14  OD2      -10.6300    3.0590    0.6490 O.co2  18  ASP18      -0.2456
     15  C         -7.4570    3.4490   -0.4690 C.2    18  ASP18       0.2622
     16  O         -7.5790    4.4230   -1.2060 O.2    18  ASP18      -0.2715
     17  N         -6.7830    3.6660    0.6670 N.am   19  ILE19      -0.1963
     18  CA        -6.4730    4.9620    1.2510 C.3    19  ILE19       0.1727
     19  CB        -5.9660    4.7960    2.7400 C.3    19  ILE19       0.0290
     20  CG2       -4.6800    4.0440    2.8270 C.3    19  ILE19       0.0023
     21  CG1       -5.7570    6.1350    3.5640 C.3    19  ILE19       0.0022
     22  CD1       -6.9460    7.0030    3.7030 C.3    19  ILE19       0.0001
     23  C         -5.5000    5.7810    0.3390 C.2    19  ILE19       0.2616
     24  O         -5.7690    6.9650   -0.0340 O.2    19  ILE19      -0.2715
     25  N         -4.4450    5.0980   -0.2040 N.am   20  ILE20      -0.1963
     26  CA        -3.7630    5.4400   -1.4580 C.3    20  ILE20       0.1727
     27  CB        -2.2100    5.4370   -1.2690 C.3    20  ILE20       0.0290
     28  CG2       -1.8610    6.5760   -0.2560 C.3    20  ILE20       0.0023
     29  CG1       -1.5260    4.1100   -0.9140 C.3    20  ILE20       0.0022
     30  CD1       -0.0200    4.2560   -0.6990 C.3    20  ILE20       0.0001
     31  C         -4.2760    4.3340   -2.4360 C.2    20  ILE20       0.2617
     32  O         -4.0530    3.1690   -2.2790 O.2    20  ILE20      -0.2715
     33  N         -4.9410    4.8110   -3.4460 N.am   21  TRP21      -0.1941
     34  CA        -5.4130    4.0870   -4.6560 C.3    21  TRP21       0.1982
     35  CB        -6.7280    3.3830   -4.1640 C.3    21  TRP21       0.0394
     36  CG        -7.1910    2.3800   -5.1940 C.3    21  TRP21       0.0475
     37  CD1       -8.2010    2.5130   -6.1000 C.3    21  TRP21       0.1166
     38  NE1       -8.2490    1.3760   -6.9010 N.pl3  21  TRP21      -0.2376
     39  CE2       -7.1040    0.6070   -6.6890 C.ar   21  TRP21       0.0614
     40  CZ2       -6.5890   -0.5400   -7.3230 C.ar   21  TRP21       0.0158
     41  CH2       -5.3990   -1.1090   -6.8770 C.ar   21  TRP21       0.0013
     42  CZ3       -4.8390   -0.5650   -5.6710 C.ar   21  TRP21      -0.0002
     43  CE3       -5.4260    0.5390   -4.9710 C.ar   21  TRP21      -0.0030
     44  CD2       -6.4960    1.1980   -5.5550 C.ar   21  TRP21      -0.0059
     45  C         -5.6750    5.0260   -5.8140 C.2    21  TRP21       0.3842
     46  O         -6.3400    6.0940   -5.6060 O.co2  21  TRP21      -0.2437
     47  OXT       -5.1860    4.6870   -6.9310 O.co2  21  TRP21      -0.2437
@<TRIPOS>BOND
     1    40    41   ar
     2    40    39   ar
     3    41    42   ar
     4    39    38    1
     5    39    44   ar
     6    42    43   ar
     7    38    37    1
     8    43    44   ar
     9    44    36    1
    10    37    36    1
    11    36    35    1
    12    47    45   ar
    13     5     4    1
    14    35    34    1
    15    45    34    1
    16    45    46   ar
    17    34    33    1
    18     8     7    2
    19     4     6    1
    20     4     3    1
    21     2     3    1
    22     2     1    1
    23     2     7    1
    24     7     9   am
    25    33    31   am
    26    32    31    2
    27    31    26    1
    28     9    10    1
    29    10    11    1
    30    10    15    1
    31    26    27    1
    32    26    25    1
    33    11    12    1
    34    13    12   ar
    35    27    29    1
    36    27    28    1
    37    29    30    1
    38    16    15    2
    39    15    17   am
    40    12    14   ar
    41    25    23   am
    42    17    18    1
    43    23    24    2
    44    23    18    1
    45    18    19    1
    46    19    21    1
    47    19    20    1
    48    21    22    1
@<TRIPOS>MOLECULE
16219006
 44 47 0 0 0
SMALL
GASTEIGER

@<TRIPOS>ATOM
      1 O          -7.1083    2.8969    2.6382 O.2     1  PRO11      -0.2738
      2 O          -3.0182    2.6964    1.4584 O.2     5  ASP55      -0.2735
      3 O          -4.0346   -0.7439    1.7210 O.2     2  VAL22      -0.2738
      4 O          -4.4421    4.2947   -2.8576 O.2     4  TRP44      -0.2738
      5 O          -6.6624    1.2966   -1.3948 O.2     3  LEU33      -0.2738
      6 OD1        -1.5934    5.8880    1.0087 O.co2   5  ASP55      -0.5497
      7 OD2         0.3914    5.7042   -0.0972 O.co2   5  ASP55      -0.5497
      8 N          -4.5251    4.3775    1.2295 N.am    1  PRO11      -0.2884
      9 N          -5.1211    1.8098    2.9624 N.am    2  VAL22      -0.3022
     10 N          -3.2100    2.9725   -1.4379 N.am    5  ASP55      -0.3021
     11 N          -6.0631   -0.3151    0.7476 N.am    3  LEU33      -0.3025
     12 N          -4.6150    0.7472   -2.2608 N.am    4  TRP44      -0.3022
     13 NE1        -3.8361   -1.5786   -6.0887 N.ar    4  TRP44      -0.3604
     14 CA         -5.0424    4.2246    2.5874 C.3     1  PRO11       0.1023
     15 CB         -5.8674    5.4923    2.8297 C.3     1  PRO11      -0.0243
     16 CG         -6.2688    5.9355    1.4286 C.3     1  PRO11      -0.0350
     17 CD         -5.0454    5.5795    0.6015 C.3     1  PRO11       0.0156
     18 C          -5.8830    2.9355    2.7286 C.2     1  PRO11       0.2342
     19 C          -3.3922    3.6976    0.8281 C.2     5  ASP55       0.2369
     20 CA         -5.6919    0.4701    3.0386 C.3     2  VAL22       0.1017
     21 CA         -2.7637    4.0547   -0.5439 C.3     5  ASP55       0.1047
     22 CB         -5.2861   -0.2329    4.3526 C.3     2  VAL22      -0.0197
     23 CA         -5.6343   -0.7372   -0.5775 C.3     3  LEU33       0.0996
     24 C          -5.1682   -0.2748    1.7967 C.2     2  VAL22       0.2342
     25 CB         -1.2462    4.0673   -0.4745 C.3     5  ASP55       0.0138
     26 CA         -4.5873    1.9011   -3.1678 C.3     4  TRP44       0.1034
     27 CB         -6.5592   -1.7995   -1.1901 C.3     3  LEU33      -0.0236
     28 CG         -6.3898   -3.2193   -0.6065 C.3     3  LEU33      -0.0446
     29 C          -4.1315    3.1800   -2.4412 C.2     4  TRP44       0.2343
     30 CB         -3.6534    1.6736   -4.3658 C.3     4  TRP44       0.0013
     31 C          -5.6960    0.5358   -1.4384 C.2     3  LEU33       0.2340
     32 CG1        -5.7620   -1.6901    4.3844 C.3     2  VAL22      -0.0605
     33 CG2        -5.8724    0.5041    5.5634 C.3     2  VAL22      -0.0605
     34 CG         -3.9842    0.4417   -5.1592 C.ar    4  TRP44      -0.0201
     35 CG         -0.7774    5.3422    0.2167 C.2     5  ASP55       0.0440
     36 CD1        -6.9175   -3.3490    0.8228 C.3     3  LEU33      -0.0626
     37 CD2        -7.1151   -4.2330   -1.4976 C.3     3  LEU33      -0.0626
     38 CD2        -5.1779    0.1906   -5.9123 C.ar    4  TRP44       0.0029
     39 CD1        -3.1806   -0.6738   -5.2998 C.ar    4  TRP44       0.0060
     40 CE2        -5.0600   -1.0835   -6.4693 C.ar    4  TRP44       0.0467
     41 CE3        -6.3529    0.9271   -6.1678 C.ar    4  TRP44      -0.0523
     42 CZ2        -6.0611   -1.6615   -7.2606 C.ar    4  TRP44      -0.0378
     43 CZ3        -7.3646    0.3636   -6.9532 C.ar    4  TRP44      -0.0611
     44 CH2        -7.2181   -0.9136   -7.4894 C.ar    4  TRP44      -0.0598
@<TRIPOS>BOND
     1     1    18    2
     2     2    19    2
     3     3    24    2
     4     4    29    2
     5     5    31    2
     6     6    35   ar
     7     7    35   ar
     8     8    14    1
     9     8    17    1
    10     8    19   am
    11     9    18   am
    12     9    20    1
    13    10    21    1
    14    10    29   am
    15    11    23    1
    16    11    24   am
    17    12    26    1
    18    12    31   am
    19    13    39   ar
    20    13    40   ar
    21    14    15    1
    22    14    18    1
    23    15    16    1
    24    16    17    1
    25    19    21    1
    26    20    22    1
    27    20    24    1
    28    21    25    1
    29    22    32    1
    30    22    33    1
    31    23    27    1
    32    23    31    1
    33    25    35    1
    34    26    29    1
    35    26    30    1
    36    27    28    1
    37    28    36    1
    38    28    37    1
    39    30    34    1
    40    34    38   ar
    41    34    39   ar
    42    38    40   ar
    43    38    41   ar
    44    40    42   ar
    45    41    43   ar
    46    42    44   ar
    47    43    44   ar
