@<TRIPOS>MOLECULE
ET1_17-21_50CONFORMERS.pdb
 47 48 0 0 0
SMALL
GASTEIGER

@<TRIPOS>ATOM
      1  N         -4.4410    0.2010   -1.3300 N.3    17  LEU17      -0.1231
      2  CA        -5.5650   -0.6370   -1.7110 C.3    17  LEU17       0.1693
      3  CB        -6.1790   -1.2220   -0.4480 C.3    17  LEU17       0.0284
      4  CG        -7.2710   -2.2600   -0.6260 C.3    17  LEU17       0.0019
      5  CD1       -7.0390   -3.3820   -1.7660 C.3    17  LEU17       0.0001
      6  CD2       -7.5630   -2.8400    0.7060 C.3    17  LEU17       0.0001
      7  C         -6.4970    0.2350   -2.5900 C.2    17  LEU17       0.2592
      8  O         -6.8530   -0.0600   -3.7650 O.2    17  LEU17      -0.2718
      9  N         -6.9540    1.3410   -2.0600 N.am   18  ASP18      -0.1960
     10  CA        -8.0640    2.1930   -2.4620 C.3    18  ASP18       0.1840
     11  CB        -9.2830    1.6460   -1.8020 C.3    18  ASP18       0.1450
     12  CG       -10.5370    2.4520   -2.2150 C.2    18  ASP18       0.3671
     13  OD1      -11.1140    2.0050   -3.2510 O.co2  18  ASP18      -0.2456
     14  OD2      -10.9560    3.4170   -1.5210 O.co2  18  ASP18      -0.2456
     15  C         -7.9070    3.6610   -2.1470 C.2    18  ASP18       0.2622
     16  O         -8.2070    4.6000   -2.9010 O.2    18  ASP18      -0.2715
     17  N         -7.5000    3.8940   -0.8870 N.am   19  ILE19      -0.1963
     18  CA        -7.1370    5.2190   -0.2970 C.3    19  ILE19       0.1727
     19  CB        -7.4840    5.3020    1.2320 C.3    19  ILE19       0.0290
     20  CG2       -6.9460    6.6770    1.8040 C.3    19  ILE19       0.0023
     21  CG1       -8.9970    5.0190    1.4390 C.3    19  ILE19       0.0022
     22  CD1       -9.6510    5.0260    2.8000 C.3    19  ILE19       0.0001
     23  C         -5.7050    5.6160   -0.7450 C.2    19  ILE19       0.2616
     24  O         -5.5450    6.6670   -1.4030 O.2    19  ILE19      -0.2715
     25  N         -4.6630    4.8680   -0.3900 N.am   20  ILE20      -0.1963
     26  CA        -3.3280    4.9590   -1.0090 C.3    20  ILE20       0.1727
     27  CB        -2.1940    4.4390   -0.1210 C.3    20  ILE20       0.0290
     28  CG2       -0.8360    4.4230   -0.8410 C.3    20  ILE20       0.0023
     29  CG1       -2.0260    5.1680    1.2250 C.3    20  ILE20       0.0022
     30  CD1       -3.0830    4.8000    2.2720 C.3    20  ILE20       0.0001
     31  C         -3.4160    4.2400   -2.3320 C.2    20  ILE20       0.2617
     32  O         -3.5130    3.0230   -2.3730 O.2    20  ILE20      -0.2715
     33  N         -3.2910    4.9330   -3.5120 N.am   21  TRP21      -0.1941
     34  CA        -3.5400    4.5000   -4.9110 C.3    21  TRP21       0.1982
     35  CB        -4.9890    4.5460   -5.3170 C.3    21  TRP21       0.0394
     36  CG        -5.3170    4.0380   -6.7550 C.3    21  TRP21       0.0475
     37  CD1       -5.2500    4.7270   -7.9210 C.3    21  TRP21       0.1166
     38  NE1       -5.5580    3.8940   -8.9880 N.pl3  21  TRP21      -0.2376
     39  CE2       -5.8900    2.6280   -8.5770 C.ar   21  TRP21       0.0614
     40  CZ2       -6.3820    1.5100   -9.2020 C.ar   21  TRP21       0.0158
     41  CH2       -6.8100    0.4000   -8.5950 C.ar   21  TRP21       0.0013
     42  CZ3       -6.8190    0.4660   -7.1640 C.ar   21  TRP21      -0.0002
     43  CE3       -6.3210    1.6010   -6.4690 C.ar   21  TRP21      -0.0030
     44  CD2       -5.8180    2.6990   -7.1070 C.ar   21  TRP21      -0.0059
     45  C         -2.6350    5.2710   -5.8620 C.2    21  TRP21       0.3842
     46  O         -2.0630    4.6330   -6.7090 O.co2  21  TRP21      -0.2437
     47  OXT       -2.4590    6.4990   -5.7050 O.co2  21  TRP21      -0.2437
@<TRIPOS>BOND
     1    40    41   ar
     2    40    39   ar
     3    41    42   ar
     4    39    38    1
     5    39    44   ar
     6    42    43   ar
     7    38    37    1
     8    43    44   ar
     9    44    36    1
    10    37    36    1
    11    36    35    1
    12    47    45   ar
    13     5     4    1
    14    35    34    1
    15    45    34    1
    16    45    46   ar
    17    34    33    1
    18     8     7    2
    19     4     6    1
    20     4     3    1
    21     2     3    1
    22     2     1    1
    23     2     7    1
    24     7     9   am
    25    33    31   am
    26    32    31    2
    27    31    26    1
    28     9    10    1
    29    10    11    1
    30    10    15    1
    31    26    27    1
    32    26    25    1
    33    11    12    1
    34    13    12   ar
    35    27    29    1
    36    27    28    1
    37    29    30    1
    38    16    15    2
    39    15    17   am
    40    12    14   ar
    41    25    23   am
    42    17    18    1
    43    23    24    2
    44    23    18    1
    45    18    19    1
    46    19    21    1
    47    19    20    1
    48    21    22    1
@<TRIPOS>MOLECULE
16219006
 44 47 0 0 0
SMALL
GASTEIGER

@<TRIPOS>ATOM
      1 O          -5.8018    6.6138    0.1319 O.2     1  PRO11      -0.2738
      2 O          -6.6901    2.3914   -0.0813 O.2     5  ASP55      -0.2735
      3 O          -3.8367    2.9698   -1.9836 O.2     2  VAL22      -0.2738
      4 O          -9.9414    4.2513   -3.2716 O.2     4  TRP44      -0.2738
      5 O          -6.3962    5.8648   -4.0956 O.2     3  LEU33      -0.2738
      6 OD1        -9.4088    0.1451   -3.4186 O.co2   5  ASP55      -0.5497
      7 OD2       -11.0407    0.3445   -1.8238 O.co2   5  ASP55      -0.5497
      8 N          -7.9868    4.2121    0.2215 N.am    1  PRO11      -0.2884
      9 N          -4.8029    4.5559    0.2444 N.am    2  VAL22      -0.3022
     10 N          -8.2258    2.8494   -2.6588 N.am    5  ASP55      -0.3021
     11 N          -4.0041    5.0142   -3.0100 N.am    3  LEU33      -0.3025
     12 N          -6.7365    3.6989   -4.7740 N.am    4  TRP44      -0.3022
     13 NE1        -7.5130    3.6778   -9.2320 N.ar    4  TRP44      -0.3604
     14 CA         -7.0617    4.7951    1.1893 C.3     1  PRO11       0.1023
     15 CB         -7.9062    5.8340    1.9280 C.3     1  PRO11      -0.0243
     16 CG         -8.9382    6.2637    0.8901 C.3     1  PRO11      -0.0350
     17 CD         -9.2160    4.9849    0.1165 C.3     1  PRO11       0.0156
     18 C          -5.8444    5.4349    0.4780 C.2     1  PRO11       0.2342
     19 C          -7.7562    2.9703   -0.3300 C.2     5  ASP55       0.2369
     20 CA         -3.6561    4.9430   -0.5769 C.3     2  VAL22       0.1017
     21 CA         -8.7668    2.4269   -1.3708 C.3     5  ASP55       0.1047
     22 CB         -2.3118    4.5548    0.0802 C.3     2  VAL22      -0.0197
     23 CA         -4.4529    4.4362   -4.2756 C.3     3  LEU33       0.0996
     24 C          -3.8355    4.1978   -1.9113 C.2     2  VAL22       0.2342
     25 CB         -8.8283    0.9090   -1.2756 C.3     5  ASP55       0.0138
     26 CA         -8.1928    3.8420   -4.9011 C.3     4  TRP44       0.1034
     27 CB         -3.7066    5.0752   -5.4521 C.3     3  LEU33      -0.0236
     28 CG         -4.0782    4.5017   -6.8347 C.3     3  LEU33      -0.0446
     29 C          -8.8681    3.7063   -3.5225 C.2     4  TRP44       0.2343
     30 CB         -8.7723    2.8019   -5.8725 C.3     4  TRP44       0.0013
     31 C          -5.9540    4.7470   -4.3601 C.2     3  LEU33       0.2340
     32 CG1        -1.1260    4.8965   -0.8334 C.3     2  VAL22      -0.0605
     33 CG2        -2.1214    5.2707    1.4223 C.3     2  VAL22      -0.0605
     34 CG         -8.1568    2.8925   -7.2461 C.ar    4  TRP44      -0.0201
     35 CG         -9.8646    0.4279   -2.2725 C.2     5  ASP55       0.0440
     36 CD1        -3.7481    3.0136   -6.9554 C.3     3  LEU33      -0.0626
     37 CD2        -3.3513    5.2805   -7.9331 C.3     3  LEU33      -0.0626
     38 CD2        -7.3558    1.8992   -7.9002 C.ar    4  TRP44       0.0029
     39 CD1        -8.2378    3.9688   -8.1098 C.ar    4  TRP44       0.0060
     40 CE2        -6.9605    2.4232   -9.1323 C.ar    4  TRP44       0.0467
     41 CE3        -6.9220    0.6023   -7.5546 C.ar    4  TRP44      -0.0523
     42 CZ2        -6.1493    1.7207  -10.0326 C.ar    4  TRP44      -0.0378
     43 CZ3        -6.1113   -0.1146   -8.4436 C.ar    4  TRP44      -0.0611
     44 CH2        -5.7303    0.4394   -9.6634 C.ar    4  TRP44      -0.0598
@<TRIPOS>BOND
     1     1    18    2
     2     2    19    2
     3     3    24    2
     4     4    29    2
     5     5    31    2
     6     6    35   ar
     7     7    35   ar
     8     8    14    1
     9     8    17    1
    10     8    19   am
    11     9    18   am
    12     9    20    1
    13    10    21    1
    14    10    29   am
    15    11    23    1
    16    11    24   am
    17    12    26    1
    18    12    31   am
    19    13    39   ar
    20    13    40   ar
    21    14    15    1
    22    14    18    1
    23    15    16    1
    24    16    17    1
    25    19    21    1
    26    20    22    1
    27    20    24    1
    28    21    25    1
    29    22    32    1
    30    22    33    1
    31    23    27    1
    32    23    31    1
    33    25    35    1
    34    26    29    1
    35    26    30    1
    36    27    28    1
    37    28    36    1
    38    28    37    1
    39    30    34    1
    40    34    38   ar
    41    34    39   ar
    42    38    40   ar
    43    38    41   ar
    44    40    42   ar
    45    41    43   ar
    46    42    44   ar
    47    43    44   ar
