@<TRIPOS>MOLECULE
../1EDN/PCA1_17-21.pdb
 47 48 0 0 0
SMALL
GASTEIGER

@<TRIPOS>ATOM
      1  N         -4.6470   -0.3680   -1.6750 N.3    17  LEU17      -0.1231
      2  CA        -5.8920   -0.8550   -2.2480 C.3    17  LEU17       0.1693
      3  CB        -6.0770   -2.3450   -1.7480 C.3    17  LEU17       0.0284
      4  CG        -7.4170   -3.0590   -2.1890 C.3    17  LEU17       0.0019
      5  CD1       -7.4920   -3.1930   -3.7220 C.3    17  LEU17       0.0001
      6  CD2       -7.5340   -4.4610   -1.6100 C.3    17  LEU17       0.0001
      7  C         -7.0080    0.1010   -1.8270 C.2    17  LEU17       0.2592
      8  O         -7.6220    0.6590   -2.7680 O.2    17  LEU17      -0.2718
      9  N         -7.2890    0.1920   -0.5460 N.am   18  ASP18      -0.1960
     10  CA        -8.2730    1.1070    0.1120 C.3    18  ASP18       0.1840
     11  CB        -8.8290    0.4520    1.4200 C.3    18  ASP18       0.1450
     12  CG        -9.9140    1.2760    2.0640 C.2    18  ASP18       0.3671
     13  OD1      -10.8560    1.7240    1.3430 O.co2  18  ASP18      -0.2456
     14  OD2       -9.7710    1.5960    3.2830 O.co2  18  ASP18      -0.2456
     15  C         -7.6270    2.4530    0.4740 C.2    18  ASP18       0.2622
     16  O         -8.0770    3.4620   -0.0480 O.2    18  ASP18      -0.2715
     17  N         -6.6010    2.4770    1.3340 N.am   19  ILE19      -0.1963
     18  CA        -6.1660    3.6270    2.0790 C.3    19  ILE19       0.1727
     19  CB        -5.0730    3.3500    3.1520 C.3    19  ILE19       0.0290
     20  CG2       -4.5850    4.5470    3.9530 C.3    19  ILE19       0.0023
     21  CG1       -5.6210    2.1420    3.9730 C.3    19  ILE19       0.0022
     22  CD1       -6.7460    2.5740    4.8760 C.3    19  ILE19       0.0001
     23  C         -5.6740    4.7260    1.1170 C.2    19  ILE19       0.2616
     24  O         -5.9640    5.8590    1.4260 O.2    19  ILE19      -0.2715
     25  N         -4.8940    4.3400    0.1060 N.am   20  ILE20      -0.1963
     26  CA        -4.3700    5.1770   -0.9560 C.3    20  ILE20       0.1727
     27  CB        -2.8480    5.4620   -0.8180 C.3    20  ILE20       0.0290
     28  CG2       -2.5210    6.1670    0.5290 C.3    20  ILE20       0.0023
     29  CG1       -1.9270    4.2500   -0.9510 C.3    20  ILE20       0.0022
     30  CD1       -0.4520    4.4090   -1.0350 C.3    20  ILE20       0.0001
     31  C         -4.8260    4.7960   -2.3980 C.2    20  ILE20       0.2617
     32  O         -4.8210    3.6210   -2.7490 O.2    20  ILE20      -0.2715
     33  N         -5.1950    5.7710   -3.1960 N.am   21  TRP21      -0.1941
     34  CA        -5.6960    5.8160   -4.5740 C.3    21  TRP21       0.1982
     35  CB        -7.1930    6.0870   -4.6010 C.3    21  TRP21       0.0394
     36  CG        -8.1480    4.9210   -4.3560 C.3    21  TRP21       0.0475
     37  CD1       -8.4270    4.3170   -3.1580 C.3    21  TRP21       0.1166
     38  NE1       -9.4680    3.4340   -3.3480 N.pl3  21  TRP21      -0.2376
     39  CE2      -10.0400    3.5420   -4.5600 C.ar   21  TRP21       0.0614
     40  CZ2      -11.2420    2.9770   -5.0990 C.ar   21  TRP21       0.0158
     41  CH2      -11.3060    3.0240   -6.5170 C.ar   21  TRP21       0.0013
     42  CZ3      -10.3640    3.7270   -7.2650 C.ar   21  TRP21      -0.0002
     43  CE3       -9.2810    4.3830   -6.7050 C.ar   21  TRP21      -0.0030
     44  CD2       -9.0950    4.3440   -5.3390 C.ar   21  TRP21      -0.0059
     45  C         -4.8510    6.8160   -5.3910 C.2    21  TRP21       0.3842
     46  O         -5.0400    8.0490   -5.1500 O.co2  21  TRP21      -0.2437
     47  OXT       -3.9720    6.3760   -6.1010 O.co2  21  TRP21      -0.2437
@<TRIPOS>BOND
     1    42    43   ar
     2    42    41   ar
     3    43    44   ar
     4    41    40   ar
     5    47    45   ar
     6    45    46   ar
     7    45    34    1
     8    44    39   ar
     9    44    36    1
    10    40    39   ar
    11    35    34    1
    12    35    36    1
    13    34    33    1
    14    39    38    1
    15    36    37    1
    16     5     4    1
    17    38    37    1
    18    33    31   am
    19     8     7    2
    20    32    31    2
    21    31    26    1
    22     2     7    1
    23     2     3    1
    24     2     1    1
    25     4     3    1
    26     4     6    1
    27     7     9   am
    28    30    29    1
    29    26    27    1
    30    26    25    1
    31    29    27    1
    32    27    28    1
    33     9    10    1
    34    16    15    2
    35    25    23   am
    36    10    15    1
    37    10    11    1
    38    15    17   am
    39    23    24    2
    40    23    18    1
    41    17    18    1
    42    13    12   ar
    43    11    12    1
    44    12    14   ar
    45    18    19    1
    46    19    20    1
    47    19    21    1
    48    21    22    1
@<TRIPOS>MOLECULE
16219006
 44 47 0 0 0
SMALL
GASTEIGER

@<TRIPOS>ATOM
      1 O          -6.5701    7.6662   -1.0516 O.2     1  PRO11      -0.2738
      2 O          -3.1874    5.1188   -1.9069 O.2     5  ASP55      -0.2735
      3 O          -6.0766    3.2798   -2.5115 O.2     2  VAL22      -0.2738
      4 O          -3.3558    4.9276    3.0068 O.2     4  TRP44      -0.2738
      5 O          -7.0508    4.3162    1.6563 O.2     3  LEU33      -0.2738
      6 OD1        -0.9643    2.0884    1.1670 O.co2   5  ASP55      -0.5497
      7 OD2         0.4934    3.8390    1.4049 O.co2   5  ASP55      -0.5497
      8 N          -3.4733    6.8574   -0.4984 N.am    1  PRO11      -0.2884
      9 N          -5.7918    6.1650   -2.5963 N.am    2  VAL22      -0.3022
     10 N          -3.3308    3.9914    0.9074 N.am    5  ASP55      -0.3021
     11 N          -7.6906    3.8710   -0.9927 N.am    3  LEU33      -0.3025
     12 N          -5.5772    2.5650    1.4844 N.am    4  TRP44      -0.3022
     13 NE1        -6.5081   -0.4415    4.7358 N.ar    4  TRP44      -0.3604
     14 CA         -4.1614    7.6535   -1.5108 C.3     1  PRO11       0.1023
     15 CB         -4.0710    9.0845   -0.9796 C.3     1  PRO11      -0.0243
     16 CG         -4.0236    8.9047    0.5344 C.3     1  PRO11      -0.0350
     17 CD         -3.2248    7.6239    0.7141 C.3     1  PRO11       0.0156
     18 C          -5.6283    7.1881   -1.6806 C.2     1  PRO11       0.2342
     19 C          -2.9613    5.6124   -0.7938 C.2     5  ASP55       0.2369
     20 CA         -7.0766    5.4820   -2.7459 C.3     2  VAL22       0.1017
     21 CA         -2.2678    4.8132    0.3376 C.3     5  ASP55       0.1047
     22 CB         -7.4818    5.3223   -4.2292 C.3     2  VAL22      -0.0197
     23 CA         -7.4161    2.7246   -0.1280 C.3     3  LEU33       0.0996
     24 C          -6.8881    4.1027   -2.0901 C.2     2  VAL22       0.2342
     25 CB         -1.1651    3.9467   -0.2540 C.3     5  ASP55       0.0138
     26 CA         -4.7590    2.9861    2.6292 C.3     4  TRP44       0.1034
     27 CB         -8.7248    2.0596    0.3132 C.3     3  LEU33      -0.0236
     28 CG         -8.5425    0.8091    1.1973 C.3     3  LEU33      -0.0446
     29 C          -3.7728    4.0925    2.2064 C.2     4  TRP44       0.2343
     30 CB         -3.9886    1.8000    3.2299 C.3     4  TRP44       0.0013
     31 C          -6.6684    3.2947    1.0856 C.2     3  LEU33       0.2340
     32 CG1        -8.7914    4.5327   -4.3669 C.3     2  VAL22      -0.0605
     33 CG2        -7.6551    6.6855   -4.9084 C.3     2  VAL22      -0.0605
     34 CG         -4.9031    0.6863    3.6741 C.ar    4  TRP44      -0.0201
     35 CG         -0.4827    3.2257    0.8923 C.2     5  ASP55       0.0440
     36 CD1        -7.7877   -0.3083    0.4763 C.3     3  LEU33      -0.0626
     37 CD2        -9.9078    0.2940    1.6574 C.3     3  LEU33      -0.0626
     38 CD2        -4.9682   -0.6424    3.1387 C.ar    4  TRP44       0.0029
     39 CD1        -5.8630    0.7620    4.6659 C.ar    4  TRP44       0.0060
     40 CE2        -5.9863   -1.3178    3.8144 C.ar    4  TRP44       0.0467
     41 CE3        -4.2594   -1.3332    2.1338 C.ar    4  TRP44      -0.0523
     42 CZ2        -6.3360   -2.6446    3.5326 C.ar    4  TRP44      -0.0378
     43 CZ3        -4.5953   -2.6607    1.8401 C.ar    4  TRP44      -0.0611
     44 CH2        -5.6203   -3.3043    2.5295 C.ar    4  TRP44      -0.0598
@<TRIPOS>BOND
     1     1    18    2
     2     2    19    2
     3     3    24    2
     4     4    29    2
     5     5    31    2
     6     6    35   ar
     7     7    35   ar
     8     8    14    1
     9     8    17    1
    10     8    19   am
    11     9    18   am
    12     9    20    1
    13    10    21    1
    14    10    29   am
    15    11    23    1
    16    11    24   am
    17    12    26    1
    18    12    31   am
    19    13    39   ar
    20    13    40   ar
    21    14    15    1
    22    14    18    1
    23    15    16    1
    24    16    17    1
    25    19    21    1
    26    20    22    1
    27    20    24    1
    28    21    25    1
    29    22    32    1
    30    22    33    1
    31    23    27    1
    32    23    31    1
    33    25    35    1
    34    26    29    1
    35    26    30    1
    36    27    28    1
    37    28    36    1
    38    28    37    1
    39    30    34    1
    40    34    38   ar
    41    34    39   ar
    42    38    40   ar
    43    38    41   ar
    44    40    42   ar
    45    41    43   ar
    46    42    44   ar
    47    43    44   ar
