@<TRIPOS>MOLECULE
../1EDN/PCA1_17-21.pdb
 47 48 0 0 0
SMALL
GASTEIGER

@<TRIPOS>ATOM
      1  N         -4.6470   -0.3680   -1.6750 N.3    17  LEU17      -0.1231
      2  CA        -5.8920   -0.8550   -2.2480 C.3    17  LEU17       0.1693
      3  CB        -6.0770   -2.3450   -1.7480 C.3    17  LEU17       0.0284
      4  CG        -7.4170   -3.0590   -2.1890 C.3    17  LEU17       0.0019
      5  CD1       -7.4920   -3.1930   -3.7220 C.3    17  LEU17       0.0001
      6  CD2       -7.5340   -4.4610   -1.6100 C.3    17  LEU17       0.0001
      7  C         -7.0080    0.1010   -1.8270 C.2    17  LEU17       0.2592
      8  O         -7.6220    0.6590   -2.7680 O.2    17  LEU17      -0.2718
      9  N         -7.2890    0.1920   -0.5460 N.am   18  ASP18      -0.1960
     10  CA        -8.2730    1.1070    0.1120 C.3    18  ASP18       0.1840
     11  CB        -8.8290    0.4520    1.4200 C.3    18  ASP18       0.1450
     12  CG        -9.9140    1.2760    2.0640 C.2    18  ASP18       0.3671
     13  OD1      -10.8560    1.7240    1.3430 O.co2  18  ASP18      -0.2456
     14  OD2       -9.7710    1.5960    3.2830 O.co2  18  ASP18      -0.2456
     15  C         -7.6270    2.4530    0.4740 C.2    18  ASP18       0.2622
     16  O         -8.0770    3.4620   -0.0480 O.2    18  ASP18      -0.2715
     17  N         -6.6010    2.4770    1.3340 N.am   19  ILE19      -0.1963
     18  CA        -6.1660    3.6270    2.0790 C.3    19  ILE19       0.1727
     19  CB        -5.0730    3.3500    3.1520 C.3    19  ILE19       0.0290
     20  CG2       -4.5850    4.5470    3.9530 C.3    19  ILE19       0.0023
     21  CG1       -5.6210    2.1420    3.9730 C.3    19  ILE19       0.0022
     22  CD1       -6.7460    2.5740    4.8760 C.3    19  ILE19       0.0001
     23  C         -5.6740    4.7260    1.1170 C.2    19  ILE19       0.2616
     24  O         -5.9640    5.8590    1.4260 O.2    19  ILE19      -0.2715
     25  N         -4.8940    4.3400    0.1060 N.am   20  ILE20      -0.1963
     26  CA        -4.3700    5.1770   -0.9560 C.3    20  ILE20       0.1727
     27  CB        -2.8480    5.4620   -0.8180 C.3    20  ILE20       0.0290
     28  CG2       -2.5210    6.1670    0.5290 C.3    20  ILE20       0.0023
     29  CG1       -1.9270    4.2500   -0.9510 C.3    20  ILE20       0.0022
     30  CD1       -0.4520    4.4090   -1.0350 C.3    20  ILE20       0.0001
     31  C         -4.8260    4.7960   -2.3980 C.2    20  ILE20       0.2617
     32  O         -4.8210    3.6210   -2.7490 O.2    20  ILE20      -0.2715
     33  N         -5.1950    5.7710   -3.1960 N.am   21  TRP21      -0.1941
     34  CA        -5.6960    5.8160   -4.5740 C.3    21  TRP21       0.1982
     35  CB        -7.1930    6.0870   -4.6010 C.3    21  TRP21       0.0394
     36  CG        -8.1480    4.9210   -4.3560 C.3    21  TRP21       0.0475
     37  CD1       -8.4270    4.3170   -3.1580 C.3    21  TRP21       0.1166
     38  NE1       -9.4680    3.4340   -3.3480 N.pl3  21  TRP21      -0.2376
     39  CE2      -10.0400    3.5420   -4.5600 C.ar   21  TRP21       0.0614
     40  CZ2      -11.2420    2.9770   -5.0990 C.ar   21  TRP21       0.0158
     41  CH2      -11.3060    3.0240   -6.5170 C.ar   21  TRP21       0.0013
     42  CZ3      -10.3640    3.7270   -7.2650 C.ar   21  TRP21      -0.0002
     43  CE3       -9.2810    4.3830   -6.7050 C.ar   21  TRP21      -0.0030
     44  CD2       -9.0950    4.3440   -5.3390 C.ar   21  TRP21      -0.0059
     45  C         -4.8510    6.8160   -5.3910 C.2    21  TRP21       0.3842
     46  O         -5.0400    8.0490   -5.1500 O.co2  21  TRP21      -0.2437
     47  OXT       -3.9720    6.3760   -6.1010 O.co2  21  TRP21      -0.2437
@<TRIPOS>BOND
     1    42    43   ar
     2    42    41   ar
     3    43    44   ar
     4    41    40   ar
     5    47    45   ar
     6    45    46   ar
     7    45    34    1
     8    44    39   ar
     9    44    36    1
    10    40    39   ar
    11    35    34    1
    12    35    36    1
    13    34    33    1
    14    39    38    1
    15    36    37    1
    16     5     4    1
    17    38    37    1
    18    33    31   am
    19     8     7    2
    20    32    31    2
    21    31    26    1
    22     2     7    1
    23     2     3    1
    24     2     1    1
    25     4     3    1
    26     4     6    1
    27     7     9   am
    28    30    29    1
    29    26    27    1
    30    26    25    1
    31    29    27    1
    32    27    28    1
    33     9    10    1
    34    16    15    2
    35    25    23   am
    36    10    15    1
    37    10    11    1
    38    15    17   am
    39    23    24    2
    40    23    18    1
    41    17    18    1
    42    13    12   ar
    43    11    12    1
    44    12    14   ar
    45    18    19    1
    46    19    20    1
    47    19    21    1
    48    21    22    1
@<TRIPOS>MOLECULE
16219006
 44 47 0 0 0
SMALL
GASTEIGER

@<TRIPOS>ATOM
      1 O          -3.6933    3.6332   -2.8012 O.2     1  PRO11      -0.2738
      2 O          -5.9189    3.6581    0.8333 O.2     5  ASP55      -0.2735
      3 O          -7.6472    1.4548   -1.2267 O.2     2  VAL22      -0.2738
      4 O          -2.3692    0.8693    2.7389 O.2     4  TRP44      -0.2738
      5 O          -3.5529   -0.7232   -0.9727 O.2     3  LEU33      -0.2738
      6 OD1        -6.0141    5.2208    4.9081 O.co2   5  ASP55      -0.5497
      7 OD2        -4.2483    5.4476    3.4846 O.co2   5  ASP55      -0.5497
      8 N          -3.7372    4.1216    0.4305 N.am    1  PRO11      -0.2884
      9 N          -5.8028    3.7026   -1.9155 N.am    2  VAL22      -0.3022
     10 N          -4.5171    1.5245    2.2603 N.am    5  ASP55      -0.3021
     11 N          -5.8572    0.4316   -2.2180 N.am    3  LEU33      -0.3025
     12 N          -4.9381   -0.8504    0.8559 N.am    4  TRP44      -0.3022
     13 NE1        -7.4577   -0.6972    4.5222 N.ar    4  TRP44      -0.3604
     14 CA         -4.0362    4.9330   -0.7468 C.3     1  PRO11       0.1023
     15 CB         -2.7365    5.6928   -1.0263 C.3     1  PRO11      -0.0243
     16 CG         -1.6593    4.7955   -0.4284 C.3     1  PRO11      -0.0350
     17 CD         -2.3391    4.2307    0.8079 C.3     1  PRO11       0.0156
     18 C          -4.4634    4.0376   -1.9316 C.2     1  PRO11       0.2342
     19 C          -4.7508    3.6681    1.2509 C.2     5  ASP55       0.2369
     20 CA         -6.3758    2.7466   -2.8548 C.3     2  VAL22       0.1017
     21 CA         -4.3662    2.9546    2.5716 C.3     5  ASP55       0.1047
     22 CB         -7.6416    3.3081   -3.5387 C.3     2  VAL22      -0.0197
     23 CA         -5.9479   -0.7430   -1.3655 C.3     3  LEU33       0.0996
     24 C          -6.7126    1.4950   -2.0253 C.2     2  VAL22       0.2342
     25 CB         -5.3142    3.3358    3.6965 C.3     5  ASP55       0.0138
     26 CA         -3.8625   -0.8181    1.8540 C.3     4  TRP44       0.1034
     27 CB         -6.0398   -2.0381   -2.1810 C.3     3  LEU33      -0.0236
     28 CG         -7.3263   -2.1739   -3.0235 C.3     3  LEU33      -0.0446
     29 C          -3.4849    0.6170    2.2857 C.2     4  TRP44       0.2343
     30 CB         -4.2085   -1.6927    3.0714 C.3     4  TRP44       0.0013
     31 C          -4.6835   -0.7656   -0.4923 C.2     3  LEU33       0.2340
     32 CG1        -8.2753    2.2659   -4.4704 C.3     2  VAL22      -0.0605
     33 CG2        -7.3177    4.5679   -4.3500 C.3     2  VAL22      -0.0605
     34 CG         -5.3870   -1.2250    3.8800 C.ar    4  TRP44      -0.0201
     35 CG         -5.1744    4.8094    4.0577 C.2     5  ASP55       0.0440
     36 CD1        -7.2941   -3.4911   -3.8037 C.3     3  LEU33      -0.0626
     37 CD2        -8.5993   -2.1154   -2.1765 C.3     3  LEU33      -0.0626
     38 CD2        -5.3301   -0.6037    5.1713 C.ar    4  TRP44       0.0029
     39 CD1        -6.7257   -1.3124    3.5413 C.ar    4  TRP44       0.0060
     40 CE2        -6.6361   -0.2884    5.5437 C.ar    4  TRP44       0.0467
     41 CE3        -4.2826   -0.2639    6.0523 C.ar    4  TRP44      -0.0523
     42 CZ2        -6.9490    0.3524    6.7480 C.ar    4  TRP44      -0.0378
     43 CZ3        -4.5779    0.3654    7.2668 C.ar    4  TRP44      -0.0611
     44 CH2        -5.8933    0.6703    7.6061 C.ar    4  TRP44      -0.0598
@<TRIPOS>BOND
     1     1    18    2
     2     2    19    2
     3     3    24    2
     4     4    29    2
     5     5    31    2
     6     6    35   ar
     7     7    35   ar
     8     8    14    1
     9     8    17    1
    10     8    19   am
    11     9    18   am
    12     9    20    1
    13    10    21    1
    14    10    29   am
    15    11    23    1
    16    11    24   am
    17    12    26    1
    18    12    31   am
    19    13    39   ar
    20    13    40   ar
    21    14    15    1
    22    14    18    1
    23    15    16    1
    24    16    17    1
    25    19    21    1
    26    20    22    1
    27    20    24    1
    28    21    25    1
    29    22    32    1
    30    22    33    1
    31    23    27    1
    32    23    31    1
    33    25    35    1
    34    26    29    1
    35    26    30    1
    36    27    28    1
    37    28    36    1
    38    28    37    1
    39    30    34    1
    40    34    38   ar
    41    34    39   ar
    42    38    40   ar
    43    38    41   ar
    44    40    42   ar
    45    41    43   ar
    46    42    44   ar
    47    43    44   ar
