@<TRIPOS>MOLECULE
../1EDN/PCA1_17-21.pdb
 47 48 0 0 0
SMALL
GASTEIGER

@<TRIPOS>ATOM
      1  N         -4.6470   -0.3680   -1.6750 N.3    17  LEU17      -0.1231
      2  CA        -5.8920   -0.8550   -2.2480 C.3    17  LEU17       0.1693
      3  CB        -6.0770   -2.3450   -1.7480 C.3    17  LEU17       0.0284
      4  CG        -7.4170   -3.0590   -2.1890 C.3    17  LEU17       0.0019
      5  CD1       -7.4920   -3.1930   -3.7220 C.3    17  LEU17       0.0001
      6  CD2       -7.5340   -4.4610   -1.6100 C.3    17  LEU17       0.0001
      7  C         -7.0080    0.1010   -1.8270 C.2    17  LEU17       0.2592
      8  O         -7.6220    0.6590   -2.7680 O.2    17  LEU17      -0.2718
      9  N         -7.2890    0.1920   -0.5460 N.am   18  ASP18      -0.1960
     10  CA        -8.2730    1.1070    0.1120 C.3    18  ASP18       0.1840
     11  CB        -8.8290    0.4520    1.4200 C.3    18  ASP18       0.1450
     12  CG        -9.9140    1.2760    2.0640 C.2    18  ASP18       0.3671
     13  OD1      -10.8560    1.7240    1.3430 O.co2  18  ASP18      -0.2456
     14  OD2       -9.7710    1.5960    3.2830 O.co2  18  ASP18      -0.2456
     15  C         -7.6270    2.4530    0.4740 C.2    18  ASP18       0.2622
     16  O         -8.0770    3.4620   -0.0480 O.2    18  ASP18      -0.2715
     17  N         -6.6010    2.4770    1.3340 N.am   19  ILE19      -0.1963
     18  CA        -6.1660    3.6270    2.0790 C.3    19  ILE19       0.1727
     19  CB        -5.0730    3.3500    3.1520 C.3    19  ILE19       0.0290
     20  CG2       -4.5850    4.5470    3.9530 C.3    19  ILE19       0.0023
     21  CG1       -5.6210    2.1420    3.9730 C.3    19  ILE19       0.0022
     22  CD1       -6.7460    2.5740    4.8760 C.3    19  ILE19       0.0001
     23  C         -5.6740    4.7260    1.1170 C.2    19  ILE19       0.2616
     24  O         -5.9640    5.8590    1.4260 O.2    19  ILE19      -0.2715
     25  N         -4.8940    4.3400    0.1060 N.am   20  ILE20      -0.1963
     26  CA        -4.3700    5.1770   -0.9560 C.3    20  ILE20       0.1727
     27  CB        -2.8480    5.4620   -0.8180 C.3    20  ILE20       0.0290
     28  CG2       -2.5210    6.1670    0.5290 C.3    20  ILE20       0.0023
     29  CG1       -1.9270    4.2500   -0.9510 C.3    20  ILE20       0.0022
     30  CD1       -0.4520    4.4090   -1.0350 C.3    20  ILE20       0.0001
     31  C         -4.8260    4.7960   -2.3980 C.2    20  ILE20       0.2617
     32  O         -4.8210    3.6210   -2.7490 O.2    20  ILE20      -0.2715
     33  N         -5.1950    5.7710   -3.1960 N.am   21  TRP21      -0.1941
     34  CA        -5.6960    5.8160   -4.5740 C.3    21  TRP21       0.1982
     35  CB        -7.1930    6.0870   -4.6010 C.3    21  TRP21       0.0394
     36  CG        -8.1480    4.9210   -4.3560 C.3    21  TRP21       0.0475
     37  CD1       -8.4270    4.3170   -3.1580 C.3    21  TRP21       0.1166
     38  NE1       -9.4680    3.4340   -3.3480 N.pl3  21  TRP21      -0.2376
     39  CE2      -10.0400    3.5420   -4.5600 C.ar   21  TRP21       0.0614
     40  CZ2      -11.2420    2.9770   -5.0990 C.ar   21  TRP21       0.0158
     41  CH2      -11.3060    3.0240   -6.5170 C.ar   21  TRP21       0.0013
     42  CZ3      -10.3640    3.7270   -7.2650 C.ar   21  TRP21      -0.0002
     43  CE3       -9.2810    4.3830   -6.7050 C.ar   21  TRP21      -0.0030
     44  CD2       -9.0950    4.3440   -5.3390 C.ar   21  TRP21      -0.0059
     45  C         -4.8510    6.8160   -5.3910 C.2    21  TRP21       0.3842
     46  O         -5.0400    8.0490   -5.1500 O.co2  21  TRP21      -0.2437
     47  OXT       -3.9720    6.3760   -6.1010 O.co2  21  TRP21      -0.2437
@<TRIPOS>BOND
     1    42    43   ar
     2    42    41   ar
     3    43    44   ar
     4    41    40   ar
     5    47    45   ar
     6    45    46   ar
     7    45    34    1
     8    44    39   ar
     9    44    36    1
    10    40    39   ar
    11    35    34    1
    12    35    36    1
    13    34    33    1
    14    39    38    1
    15    36    37    1
    16     5     4    1
    17    38    37    1
    18    33    31   am
    19     8     7    2
    20    32    31    2
    21    31    26    1
    22     2     7    1
    23     2     3    1
    24     2     1    1
    25     4     3    1
    26     4     6    1
    27     7     9   am
    28    30    29    1
    29    26    27    1
    30    26    25    1
    31    29    27    1
    32    27    28    1
    33     9    10    1
    34    16    15    2
    35    25    23   am
    36    10    15    1
    37    10    11    1
    38    15    17   am
    39    23    24    2
    40    23    18    1
    41    17    18    1
    42    13    12   ar
    43    11    12    1
    44    12    14   ar
    45    18    19    1
    46    19    20    1
    47    19    21    1
    48    21    22    1
@<TRIPOS>MOLECULE
16219006
 44 47 0 0 0
SMALL
GASTEIGER

@<TRIPOS>ATOM
      1 O          -8.5535    3.0754    1.1808 O.2     1  PRO11      -0.2738
      2 O          -6.0999   -0.1178   -0.0063 O.2     5  ASP55      -0.2735
      3 O          -3.7375    2.2293    1.2111 O.2     2  VAL22      -0.2738
      4 O          -7.3141    0.7695   -4.4526 O.2     4  TRP44      -0.2738
      5 O          -6.0877    3.8418   -2.3749 O.2     3  LEU33      -0.2738
      6 OD1        -7.9446   -3.7151   -2.5315 O.co2   5  ASP55      -0.5497
      7 OD2        -7.5088   -3.1686   -0.3605 O.co2   5  ASP55      -0.5497
      8 N          -8.2710    0.2740   -0.5457 N.am    1  PRO11      -0.2884
      9 N          -6.7225    1.8235    1.7463 N.am    2  VAL22      -0.3022
     10 N          -5.8472    0.0275   -2.8427 N.am    5  ASP55      -0.3021
     11 N          -4.8961    3.8602    0.0951 N.am    3  LEU33      -0.3025
     12 N          -4.4439    2.4092   -3.0730 N.am    4  TRP44      -0.3022
     13 NE1        -2.2576    4.0029   -6.7775 N.ar    4  TRP44      -0.3604
     14 CA         -8.6522    0.6459    0.8166 C.3     1  PRO11       0.1023
     15 CB        -10.1821    0.7259    0.7767 C.3     1  PRO11      -0.0243
     16 CG        -10.4921    1.0087   -0.6880 C.3     1  PRO11      -0.0350
     17 CD         -9.4309    0.2030   -1.4165 C.3     1  PRO11       0.0156
     18 C          -8.0025    1.9794    1.2563 C.2     1  PRO11       0.2342
     19 C          -7.0349   -0.2773   -0.8054 C.2     5  ASP55       0.2369
     20 CA         -5.8774    2.9421    2.1468 C.3     2  VAL22       0.1017
     21 CA         -6.7826   -0.9085   -2.1975 C.3     5  ASP55       0.1047
     22 CB         -5.3774    2.7625    3.5973 C.3     2  VAL22      -0.0197
     23 CA         -4.0415    3.8098   -1.0817 C.3     3  LEU33       0.0996
     24 C          -4.7153    2.9698    1.1348 C.2     2  VAL22       0.2342
     25 CB         -6.1429   -2.2797   -2.0615 C.3     5  ASP55       0.0138
     26 CA         -5.2163    1.9504   -4.2348 C.3     4  TRP44       0.1034
     27 CB         -3.4449    5.1792   -1.4400 C.3     3  LEU33      -0.0236
     28 CG         -2.2690    5.6299   -0.5458 C.3     3  LEU33      -0.0446
     29 C          -6.2673    0.9054   -3.8223 C.2     4  TRP44       0.2343
     30 CB         -4.3256    1.3247   -5.3172 C.3     4  TRP44       0.0013
     31 C          -4.9653    3.3583   -2.2255 C.2     3  LEU33       0.2340
     32 CG1        -4.3841    3.8626    3.9927 C.3     2  VAL22      -0.0605
     33 CG2        -6.5527    2.7798    4.5837 C.3     2  VAL22      -0.0605
     34 CG         -3.2648    2.2606   -5.8186 C.ar    4  TRP44      -0.0201
     35 CG         -7.3051   -3.1462   -1.6048 C.2     5  ASP55       0.0440
     36 CD1        -2.7028    6.0163    0.8688 C.3     3  LEU33      -0.0626
     37 CD2        -1.5588    6.8249   -1.1918 C.3     3  LEU33      -0.0626
     38 CD2        -1.8485    2.1195   -5.6586 C.ar    4  TRP44       0.0029
     39 CD1        -3.4734    3.4308   -6.5227 C.ar    4  TRP44       0.0060
     40 CE2        -1.2479    3.2248   -6.2625 C.ar    4  TRP44       0.0467
     41 CE3        -1.0189    1.1523   -5.0540 C.ar    4  TRP44      -0.0523
     42 CZ2         0.1392    3.4138   -6.2902 C.ar    4  TRP44      -0.0378
     43 CZ3         0.3698    1.3234   -5.0756 C.ar    4  TRP44      -0.0611
     44 CH2         0.9380    2.4394   -5.6845 C.ar    4  TRP44      -0.0598
@<TRIPOS>BOND
     1     1    18    2
     2     2    19    2
     3     3    24    2
     4     4    29    2
     5     5    31    2
     6     6    35   ar
     7     7    35   ar
     8     8    14    1
     9     8    17    1
    10     8    19   am
    11     9    18   am
    12     9    20    1
    13    10    21    1
    14    10    29   am
    15    11    23    1
    16    11    24   am
    17    12    26    1
    18    12    31   am
    19    13    39   ar
    20    13    40   ar
    21    14    15    1
    22    14    18    1
    23    15    16    1
    24    16    17    1
    25    19    21    1
    26    20    22    1
    27    20    24    1
    28    21    25    1
    29    22    32    1
    30    22    33    1
    31    23    27    1
    32    23    31    1
    33    25    35    1
    34    26    29    1
    35    26    30    1
    36    27    28    1
    37    28    36    1
    38    28    37    1
    39    30    34    1
    40    34    38   ar
    41    34    39   ar
    42    38    40   ar
    43    38    41   ar
    44    40    42   ar
    45    41    43   ar
    46    42    44   ar
    47    43    44   ar
