@<TRIPOS>MOLECULE
../1EDN/PCA1_17-21.pdb
 47 48 0 0 0
SMALL
GASTEIGER

@<TRIPOS>ATOM
      1  N         -4.6470   -0.3680   -1.6750 N.3    17  LEU17      -0.1231
      2  CA        -5.8920   -0.8550   -2.2480 C.3    17  LEU17       0.1693
      3  CB        -6.0770   -2.3450   -1.7480 C.3    17  LEU17       0.0284
      4  CG        -7.4170   -3.0590   -2.1890 C.3    17  LEU17       0.0019
      5  CD1       -7.4920   -3.1930   -3.7220 C.3    17  LEU17       0.0001
      6  CD2       -7.5340   -4.4610   -1.6100 C.3    17  LEU17       0.0001
      7  C         -7.0080    0.1010   -1.8270 C.2    17  LEU17       0.2592
      8  O         -7.6220    0.6590   -2.7680 O.2    17  LEU17      -0.2718
      9  N         -7.2890    0.1920   -0.5460 N.am   18  ASP18      -0.1960
     10  CA        -8.2730    1.1070    0.1120 C.3    18  ASP18       0.1840
     11  CB        -8.8290    0.4520    1.4200 C.3    18  ASP18       0.1450
     12  CG        -9.9140    1.2760    2.0640 C.2    18  ASP18       0.3671
     13  OD1      -10.8560    1.7240    1.3430 O.co2  18  ASP18      -0.2456
     14  OD2       -9.7710    1.5960    3.2830 O.co2  18  ASP18      -0.2456
     15  C         -7.6270    2.4530    0.4740 C.2    18  ASP18       0.2622
     16  O         -8.0770    3.4620   -0.0480 O.2    18  ASP18      -0.2715
     17  N         -6.6010    2.4770    1.3340 N.am   19  ILE19      -0.1963
     18  CA        -6.1660    3.6270    2.0790 C.3    19  ILE19       0.1727
     19  CB        -5.0730    3.3500    3.1520 C.3    19  ILE19       0.0290
     20  CG2       -4.5850    4.5470    3.9530 C.3    19  ILE19       0.0023
     21  CG1       -5.6210    2.1420    3.9730 C.3    19  ILE19       0.0022
     22  CD1       -6.7460    2.5740    4.8760 C.3    19  ILE19       0.0001
     23  C         -5.6740    4.7260    1.1170 C.2    19  ILE19       0.2616
     24  O         -5.9640    5.8590    1.4260 O.2    19  ILE19      -0.2715
     25  N         -4.8940    4.3400    0.1060 N.am   20  ILE20      -0.1963
     26  CA        -4.3700    5.1770   -0.9560 C.3    20  ILE20       0.1727
     27  CB        -2.8480    5.4620   -0.8180 C.3    20  ILE20       0.0290
     28  CG2       -2.5210    6.1670    0.5290 C.3    20  ILE20       0.0023
     29  CG1       -1.9270    4.2500   -0.9510 C.3    20  ILE20       0.0022
     30  CD1       -0.4520    4.4090   -1.0350 C.3    20  ILE20       0.0001
     31  C         -4.8260    4.7960   -2.3980 C.2    20  ILE20       0.2617
     32  O         -4.8210    3.6210   -2.7490 O.2    20  ILE20      -0.2715
     33  N         -5.1950    5.7710   -3.1960 N.am   21  TRP21      -0.1941
     34  CA        -5.6960    5.8160   -4.5740 C.3    21  TRP21       0.1982
     35  CB        -7.1930    6.0870   -4.6010 C.3    21  TRP21       0.0394
     36  CG        -8.1480    4.9210   -4.3560 C.3    21  TRP21       0.0475
     37  CD1       -8.4270    4.3170   -3.1580 C.3    21  TRP21       0.1166
     38  NE1       -9.4680    3.4340   -3.3480 N.pl3  21  TRP21      -0.2376
     39  CE2      -10.0400    3.5420   -4.5600 C.ar   21  TRP21       0.0614
     40  CZ2      -11.2420    2.9770   -5.0990 C.ar   21  TRP21       0.0158
     41  CH2      -11.3060    3.0240   -6.5170 C.ar   21  TRP21       0.0013
     42  CZ3      -10.3640    3.7270   -7.2650 C.ar   21  TRP21      -0.0002
     43  CE3       -9.2810    4.3830   -6.7050 C.ar   21  TRP21      -0.0030
     44  CD2       -9.0950    4.3440   -5.3390 C.ar   21  TRP21      -0.0059
     45  C         -4.8510    6.8160   -5.3910 C.2    21  TRP21       0.3842
     46  O         -5.0400    8.0490   -5.1500 O.co2  21  TRP21      -0.2437
     47  OXT       -3.9720    6.3760   -6.1010 O.co2  21  TRP21      -0.2437
@<TRIPOS>BOND
     1    42    43   ar
     2    42    41   ar
     3    43    44   ar
     4    41    40   ar
     5    47    45   ar
     6    45    46   ar
     7    45    34    1
     8    44    39   ar
     9    44    36    1
    10    40    39   ar
    11    35    34    1
    12    35    36    1
    13    34    33    1
    14    39    38    1
    15    36    37    1
    16     5     4    1
    17    38    37    1
    18    33    31   am
    19     8     7    2
    20    32    31    2
    21    31    26    1
    22     2     7    1
    23     2     3    1
    24     2     1    1
    25     4     3    1
    26     4     6    1
    27     7     9   am
    28    30    29    1
    29    26    27    1
    30    26    25    1
    31    29    27    1
    32    27    28    1
    33     9    10    1
    34    16    15    2
    35    25    23   am
    36    10    15    1
    37    10    11    1
    38    15    17   am
    39    23    24    2
    40    23    18    1
    41    17    18    1
    42    13    12   ar
    43    11    12    1
    44    12    14   ar
    45    18    19    1
    46    19    20    1
    47    19    21    1
    48    21    22    1
@<TRIPOS>MOLECULE
16219006
 44 47 0 0 0
SMALL
GASTEIGER

@<TRIPOS>ATOM
      1 O          -3.4508   -2.4508   -0.5252 O.2     1  PRO11      -0.2738
      2 O          -6.7930   -0.6078    1.7309 O.2     5  ASP55      -0.2735
      3 O          -3.5172    2.0513    1.7630 O.2     2  VAL22      -0.2738
      4 O          -8.5643    0.2545   -2.8436 O.2     4  TRP44      -0.2738
      5 O          -4.8530    1.6875   -2.9136 O.2     3  LEU33      -0.2738
      6 OD1        -8.2903    2.3565    1.2756 O.co2   5  ASP55      -0.5497
      7 OD2        -9.6444    1.6947    3.0001 O.co2   5  ASP55      -0.5497
      8 N          -6.7630   -1.9842   -0.0594 N.am    1  PRO11      -0.2884
      9 N          -4.0812   -1.0160    1.1392 N.am    2  VAL22      -0.3022
     10 N          -7.9832    0.9037   -0.7369 N.am    5  ASP55      -0.3021
     11 N          -3.4847    1.5450   -0.4688 N.am    3  LEU33      -0.3025
     12 N          -6.4085    2.8937   -1.7285 N.am    4  TRP44      -0.3022
     13 NE1       -11.7526    2.6830   -4.2413 N.ar    4  TRP44      -0.3604
     14 CA         -5.6618   -2.7827    0.4791 C.3     1  PRO11       0.1023
     15 CB         -5.7558   -4.0988   -0.2969 C.3     1  PRO11      -0.0243
     16 CG         -6.3187   -3.6725   -1.6477 C.3     1  PRO11      -0.0350
     17 CD         -7.2957   -2.5668   -1.2809 C.3     1  PRO11       0.0156
     18 C          -4.2956   -2.0775    0.2874 C.2     1  PRO11       0.2342
     19 C          -7.3227   -0.9496    0.6692 C.2     5  ASP55       0.2369
     20 CA         -2.8607   -0.2092    1.1172 C.3     2  VAL22       0.1017
     21 CA         -8.5208   -0.1964    0.0404 C.3     5  ASP55       0.1047
     22 CB         -2.0573   -0.3485    2.4307 C.3     2  VAL22      -0.0197
     23 CA         -4.1134    2.7926   -0.8880 C.3     3  LEU33       0.0996
     24 C          -3.3003    1.2453    0.8624 C.2     2  VAL22       0.2342
     25 CB         -9.4968    0.3130    1.0980 C.3     5  ASP55       0.0138
     26 CA         -7.5409    2.4631   -2.5657 C.3     4  TRP44       0.1034
     27 CB         -3.0737    3.7586   -1.4742 C.3     3  LEU33      -0.0236
     28 CG         -3.6502    5.0965   -1.9850 C.3     3  LEU33      -0.0446
     29 C          -8.0461    1.0771   -2.0905 C.2     4  TRP44       0.2343
     30 CB         -8.6495    3.5171   -2.4636 C.3     4  TRP44       0.0013
     31 C          -5.1464    2.3951   -1.9508 C.2     3  LEU33       0.2340
     32 CG1        -0.8039    0.5392    2.4122 C.3     2  VAL22      -0.0605
     33 CG2        -1.6221   -1.7998    2.6673 C.3     2  VAL22      -0.0605
     34 CG         -9.7805    3.3041   -3.4166 C.ar    4  TRP44      -0.0201
     35 CG         -9.0765    1.5617    1.8806 C.2     5  ASP55       0.0440
     36 CD1        -4.3016    5.9164   -0.8708 C.3     3  LEU33      -0.0626
     37 CD2        -2.5467    5.9215   -2.6534 C.3     3  LEU33      -0.0626
     38 CD2        -9.8255    3.6515   -4.8036 C.ar    4  TRP44       0.0029
     39 CD1       -10.9929    2.7208   -3.1071 C.ar    4  TRP44       0.0060
     40 CE2       -11.0716    3.2538   -5.2907 C.ar    4  TRP44       0.0467
     41 CE3        -8.9189    4.2622   -5.6944 C.ar    4  TRP44      -0.0523
     42 CZ2       -11.4579    3.4381   -6.6234 C.ar    4  TRP44      -0.0378
     43 CZ3        -9.2899    4.4548   -7.0304 C.ar    4  TRP44      -0.0611
     44 CH2       -10.5423    4.0483   -7.4854 C.ar    4  TRP44      -0.0598
@<TRIPOS>BOND
     1     1    18    2
     2     2    19    2
     3     3    24    2
     4     4    29    2
     5     5    31    2
     6     6    35   ar
     7     7    35   ar
     8     8    14    1
     9     8    17    1
    10     8    19   am
    11     9    18   am
    12     9    20    1
    13    10    21    1
    14    10    29   am
    15    11    23    1
    16    11    24   am
    17    12    26    1
    18    12    31   am
    19    13    39   ar
    20    13    40   ar
    21    14    15    1
    22    14    18    1
    23    15    16    1
    24    16    17    1
    25    19    21    1
    26    20    22    1
    27    20    24    1
    28    21    25    1
    29    22    32    1
    30    22    33    1
    31    23    27    1
    32    23    31    1
    33    25    35    1
    34    26    29    1
    35    26    30    1
    36    27    28    1
    37    28    36    1
    38    28    37    1
    39    30    34    1
    40    34    38   ar
    41    34    39   ar
    42    38    40   ar
    43    38    41   ar
    44    40    42   ar
    45    41    43   ar
    46    42    44   ar
    47    43    44   ar
