@<TRIPOS>MOLECULE
../1EDN/PCA2_17-21.pdb
 47 48 0 0 0
SMALL
GASTEIGER

@<TRIPOS>ATOM
      1  N         -4.4680    0.3970   -1.5420 N.3    17  LEU17      -0.1231
      2  CA        -5.5730   -0.5090   -1.8150 C.3    17  LEU17       0.1693
      3  CB        -5.9860   -1.2020   -0.4580 C.3    17  LEU17       0.0284
      4  CG        -7.1280   -2.2100   -0.5390 C.3    17  LEU17       0.0019
      5  CD1       -6.7120   -3.3620   -1.4700 C.3    17  LEU17       0.0001
      6  CD2       -7.4980   -2.5610    0.9130 C.3    17  LEU17       0.0001
      7  C         -6.7000    0.2280   -2.5610 C.2    17  LEU17       0.2592
      8  O         -7.1860   -0.2780   -3.5510 O.2    17  LEU17      -0.2718
      9  N         -7.2650    1.2690   -1.9650 N.am   18  ASP18      -0.1960
     10  CA        -8.5260    1.8930   -2.2590 C.3    18  ASP18       0.1840
     11  CB        -9.6810    1.0560   -1.6740 C.3    18  ASP18       0.1450
     12  CG       -11.0010    1.6360   -2.1090 C.2    18  ASP18       0.3671
     13  OD1      -11.5960    2.3310   -1.2790 O.co2  18  ASP18      -0.2456
     14  OD2      -11.5460    1.2700   -3.1630 O.co2  18  ASP18      -0.2456
     15  C         -8.5570    3.3770   -1.7380 C.2    18  ASP18       0.2622
     16  O         -8.6960    4.2620   -2.5680 O.2    18  ASP18      -0.2715
     17  N         -8.4180    3.5730   -0.4160 N.am   19  ILE19      -0.1963
     18  CA        -8.3980    4.9040    0.1930 C.3    19  ILE19       0.1727
     19  CB        -8.4260    4.8620    1.7600 C.3    19  ILE19       0.0290
     20  CG2       -7.7310    6.0060    2.5190 C.3    19  ILE19       0.0023
     21  CG1       -9.9240    4.5740    2.2500 C.3    19  ILE19       0.0022
     22  CD1      -10.9740    5.6950    2.0110 C.3    19  ILE19       0.0001
     23  C         -7.1570    5.7010   -0.3260 C.2    19  ILE19       0.2616
     24  O         -7.3050    6.7970   -0.9200 O.2    19  ILE19      -0.2715
     25  N         -5.9900    5.0720   -0.2260 N.am   20  ILE20      -0.1963
     26  CA        -4.7520    5.3490   -0.9430 C.3    20  ILE20       0.1727
     27  CB        -3.5230    4.9310   -0.1080 C.3    20  ILE20       0.0290
     28  CG2       -2.1210    5.5060   -0.7390 C.3    20  ILE20       0.0023
     29  CG1       -3.5940    5.4760    1.3470 C.3    20  ILE20       0.0022
     30  CD1       -2.3570    5.1940    2.2260 C.3    20  ILE20       0.0001
     31  C         -4.7590    4.7050   -2.3650 C.2    20  ILE20       0.2617
     32  O         -4.2060    3.6200   -2.5900 O.2    20  ILE20      -0.2715
     33  N         -5.4060    5.3330   -3.3880 N.am   21  TRP21      -0.1938
     34  CA        -5.3950    4.7680   -4.7850 C.3    21  TRP21       0.2021
     35  CB        -6.6210    3.8650   -5.0310 C.3    21  TRP21       0.0612
     36  CG        -6.7890    3.3770   -6.4480 C.ar   21  TRP21       0.0007
     37  CD1       -7.1340    4.1960   -7.4760 C.ar   21  TRP21       0.0946
     38  NE1       -7.1740    3.4060   -8.6160 N.ar   21  TRP21      -0.2442
     39  CE2       -6.9360    2.0750   -8.3350 C.ar   21  TRP21       0.0810
     40  CZ2       -6.8300    1.0510   -9.2060 C.ar   21  TRP21       0.0191
     41  CH2       -6.3330   -0.2010   -8.7710 C.ar   21  TRP21       0.0015
     42  CZ3       -5.9560   -0.2520   -7.3640 C.ar   21  TRP21       0.0001
     43  CE3       -6.0150    0.8940   -6.5860 C.ar   21  TRP21       0.0012
     44  CD2       -6.6320    2.0560   -6.9830 C.ar   21  TRP21       0.0152
     45  C         -5.1960    5.8550   -5.8260 C.2    21  TRP21       0.3845
     46  O         -4.1840    5.6720   -6.5070 O.co2  21  TRP21      -0.2437
     47  OXT       -5.9640    6.8330   -6.0170 O.co2  21  TRP21      -0.2437
@<TRIPOS>BOND
     1    40    41   ar
     2    40    39   ar
     3    41    42   ar
     4    38    39   ar
     5    38    37   ar
     6    39    44   ar
     7    37    36   ar
     8    42    43   ar
     9    44    43   ar
    10    44    36   ar
    11    46    45   ar
    12    36    35    1
    13    47    45   ar
    14    45    34    1
    15    35    34    1
    16    34    33    1
    17     8     7    2
    18    33    31   am
    19    14    12   ar
    20    32    31    2
    21    16    15    2
    22     7     9   am
    23     7     2    1
    24    31    26    1
    25    10     9    1
    26    10    15    1
    27    10    11    1
    28    12    11    1
    29    12    13   ar
    30     2     1    1
    31     2     3    1
    32    15    17   am
    33     5     4    1
    34    26    25    1
    35    26    27    1
    36    24    23    2
    37    28    27    1
    38     4     3    1
    39     4     6    1
    40    17    18    1
    41    23    25   am
    42    23    18    1
    43    27    29    1
    44    18    19    1
    45    29    30    1
    46    19    21    1
    47    19    20    1
    48    22    21    1
@<TRIPOS>MOLECULE
16219006
 44 47 0 0 0
SMALL
GASTEIGER

@<TRIPOS>ATOM
      1 O          -6.5066    1.6321    2.3180 O.2     1  PRO11      -0.2738
      2 O          -9.8555    2.5120   -0.1216 O.2     5  ASP55      -0.2735
      3 O          -8.3154    5.5656    0.2516 O.2     2  VAL22      -0.2738
      4 O          -7.2153    0.3302   -3.2465 O.2     4  TRP44      -0.2738
      5 O          -4.9846    3.1575   -1.9221 O.2     3  LEU33      -0.2738
      6 OD1       -11.6174   -0.6453   -1.2539 O.co2   5  ASP55      -0.5497
      7 OD2       -13.3162    0.7378   -1.8841 O.co2   5  ASP55      -0.5497
      8 N          -8.7914    0.5479    0.2552 N.am    1  PRO11      -0.2884
      9 N          -8.1969    3.1385    1.9785 N.am    2  VAL22      -0.3022
     10 N          -8.7893    1.9330   -2.7771 N.am    5  ASP55      -0.3021
     11 N          -6.1572    4.8419    0.0327 N.am    3  LEU33      -0.3025
     12 N          -6.7453    3.8297   -3.2377 N.am    4  TRP44      -0.3022
     13 NE1        -7.8098   -0.2302   -7.3516 N.ar    4  TRP44      -0.3604
     14 CA         -8.7171    0.7618    1.6981 C.3     1  PRO11       0.1023
     15 CB         -8.3293   -0.6054    2.2683 C.3     1  PRO11      -0.0243
     16 CG         -7.6034   -1.2857    1.1145 C.3     1  PRO11      -0.0350
     17 CD         -8.3727   -0.7981   -0.1005 C.3     1  PRO11       0.0156
     18 C          -7.6825    1.8581    2.0394 C.2     1  PRO11       0.2342
     19 C          -9.5159    1.4012   -0.5500 C.2     5  ASP55       0.2369
     20 CA         -7.3564    4.3222    2.1149 C.3     2  VAL22       0.1017
     21 CA         -9.7010    1.0382   -2.0436 C.3     5  ASP55       0.1047
     22 CB         -7.9115    5.2936    3.1804 C.3     2  VAL22      -0.0197
     23 CA         -6.0586    5.2565   -1.3595 C.3     3  LEU33       0.0996
     24 C          -7.3400    4.9853    0.7246 C.2     2  VAL22       0.2342
     25 CB        -11.1268    1.3160   -2.4907 C.3     5  ASP55       0.0138
     26 CA         -6.7692    2.5869   -4.0300 C.3     4  TRP44       0.1034
     27 CB         -4.8740    6.2019   -1.5898 C.3     3  LEU33      -0.0236
     28 CG         -4.9681    7.5484   -0.8410 C.3     3  LEU33      -0.0446
     29 C          -7.5709    1.5068   -3.2671 C.2     4  TRP44       0.2343
     30 CB         -7.4001    2.8684   -5.4050 C.3     4  TRP44       0.0013
     31 C          -5.8619    3.9759   -2.1877 C.2     3  LEU33       0.2340
     32 CG1        -7.0598    6.5676    3.2647 C.3     2  VAL22      -0.0605
     33 CG2        -7.9553    4.6340    4.5638 C.3     2  VAL22      -0.0605
     34 CG         -7.3561    1.7225   -6.3700 C.ar    4  TRP44      -0.0201
     35 CG        -12.1085    0.3788   -1.8015 C.2     5  ASP55       0.0440
     36 CD1        -3.7164    8.3831   -1.1261 C.3     3  LEU33      -0.0626
     37 CD2        -6.2142    8.3509   -1.2200 C.3     3  LEU33      -0.0626
     38 CD2        -6.5367    1.5901   -7.5391 C.ar    4  TRP44       0.0029
     39 CD1        -8.1478    0.5916   -6.3143 C.ar    4  TRP44       0.0060
     40 CE2        -6.8480    0.3648   -8.1326 C.ar    4  TRP44       0.0467
     41 CE3        -5.5613    2.4007   -8.1572 C.ar    4  TRP44      -0.0523
     42 CZ2        -6.2370   -0.0899   -9.3072 C.ar    4  TRP44      -0.0378
     43 CZ3        -4.9459    1.9649   -9.3376 C.ar    4  TRP44      -0.0611
     44 CH2        -5.2810    0.7369   -9.9024 C.ar    4  TRP44      -0.0598
@<TRIPOS>BOND
     1     1    18    2
     2     2    19    2
     3     3    24    2
     4     4    29    2
     5     5    31    2
     6     6    35   ar
     7     7    35   ar
     8     8    14    1
     9     8    17    1
    10     8    19   am
    11     9    18   am
    12     9    20    1
    13    10    21    1
    14    10    29   am
    15    11    23    1
    16    11    24   am
    17    12    26    1
    18    12    31   am
    19    13    39   ar
    20    13    40   ar
    21    14    15    1
    22    14    18    1
    23    15    16    1
    24    16    17    1
    25    19    21    1
    26    20    22    1
    27    20    24    1
    28    21    25    1
    29    22    32    1
    30    22    33    1
    31    23    27    1
    32    23    31    1
    33    25    35    1
    34    26    29    1
    35    26    30    1
    36    27    28    1
    37    28    36    1
    38    28    37    1
    39    30    34    1
    40    34    38   ar
    41    34    39   ar
    42    38    40   ar
    43    38    41   ar
    44    40    42   ar
    45    41    43   ar
    46    42    44   ar
    47    43    44   ar
