@<TRIPOS>MOLECULE
../1EDN/PCA2_17-21.pdb
 47 48 0 0 0
SMALL
GASTEIGER

@<TRIPOS>ATOM
      1  N         -4.4680    0.3970   -1.5420 N.3    17  LEU17      -0.1231
      2  CA        -5.5730   -0.5090   -1.8150 C.3    17  LEU17       0.1693
      3  CB        -5.9860   -1.2020   -0.4580 C.3    17  LEU17       0.0284
      4  CG        -7.1280   -2.2100   -0.5390 C.3    17  LEU17       0.0019
      5  CD1       -6.7120   -3.3620   -1.4700 C.3    17  LEU17       0.0001
      6  CD2       -7.4980   -2.5610    0.9130 C.3    17  LEU17       0.0001
      7  C         -6.7000    0.2280   -2.5610 C.2    17  LEU17       0.2592
      8  O         -7.1860   -0.2780   -3.5510 O.2    17  LEU17      -0.2718
      9  N         -7.2650    1.2690   -1.9650 N.am   18  ASP18      -0.1960
     10  CA        -8.5260    1.8930   -2.2590 C.3    18  ASP18       0.1840
     11  CB        -9.6810    1.0560   -1.6740 C.3    18  ASP18       0.1450
     12  CG       -11.0010    1.6360   -2.1090 C.2    18  ASP18       0.3671
     13  OD1      -11.5960    2.3310   -1.2790 O.co2  18  ASP18      -0.2456
     14  OD2      -11.5460    1.2700   -3.1630 O.co2  18  ASP18      -0.2456
     15  C         -8.5570    3.3770   -1.7380 C.2    18  ASP18       0.2622
     16  O         -8.6960    4.2620   -2.5680 O.2    18  ASP18      -0.2715
     17  N         -8.4180    3.5730   -0.4160 N.am   19  ILE19      -0.1963
     18  CA        -8.3980    4.9040    0.1930 C.3    19  ILE19       0.1727
     19  CB        -8.4260    4.8620    1.7600 C.3    19  ILE19       0.0290
     20  CG2       -7.7310    6.0060    2.5190 C.3    19  ILE19       0.0023
     21  CG1       -9.9240    4.5740    2.2500 C.3    19  ILE19       0.0022
     22  CD1      -10.9740    5.6950    2.0110 C.3    19  ILE19       0.0001
     23  C         -7.1570    5.7010   -0.3260 C.2    19  ILE19       0.2616
     24  O         -7.3050    6.7970   -0.9200 O.2    19  ILE19      -0.2715
     25  N         -5.9900    5.0720   -0.2260 N.am   20  ILE20      -0.1963
     26  CA        -4.7520    5.3490   -0.9430 C.3    20  ILE20       0.1727
     27  CB        -3.5230    4.9310   -0.1080 C.3    20  ILE20       0.0290
     28  CG2       -2.1210    5.5060   -0.7390 C.3    20  ILE20       0.0023
     29  CG1       -3.5940    5.4760    1.3470 C.3    20  ILE20       0.0022
     30  CD1       -2.3570    5.1940    2.2260 C.3    20  ILE20       0.0001
     31  C         -4.7590    4.7050   -2.3650 C.2    20  ILE20       0.2617
     32  O         -4.2060    3.6200   -2.5900 O.2    20  ILE20      -0.2715
     33  N         -5.4060    5.3330   -3.3880 N.am   21  TRP21      -0.1938
     34  CA        -5.3950    4.7680   -4.7850 C.3    21  TRP21       0.2021
     35  CB        -6.6210    3.8650   -5.0310 C.3    21  TRP21       0.0612
     36  CG        -6.7890    3.3770   -6.4480 C.ar   21  TRP21       0.0007
     37  CD1       -7.1340    4.1960   -7.4760 C.ar   21  TRP21       0.0946
     38  NE1       -7.1740    3.4060   -8.6160 N.ar   21  TRP21      -0.2442
     39  CE2       -6.9360    2.0750   -8.3350 C.ar   21  TRP21       0.0810
     40  CZ2       -6.8300    1.0510   -9.2060 C.ar   21  TRP21       0.0191
     41  CH2       -6.3330   -0.2010   -8.7710 C.ar   21  TRP21       0.0015
     42  CZ3       -5.9560   -0.2520   -7.3640 C.ar   21  TRP21       0.0001
     43  CE3       -6.0150    0.8940   -6.5860 C.ar   21  TRP21       0.0012
     44  CD2       -6.6320    2.0560   -6.9830 C.ar   21  TRP21       0.0152
     45  C         -5.1960    5.8550   -5.8260 C.2    21  TRP21       0.3845
     46  O         -4.1840    5.6720   -6.5070 O.co2  21  TRP21      -0.2437
     47  OXT       -5.9640    6.8330   -6.0170 O.co2  21  TRP21      -0.2437
@<TRIPOS>BOND
     1    40    41   ar
     2    40    39   ar
     3    41    42   ar
     4    38    39   ar
     5    38    37   ar
     6    39    44   ar
     7    37    36   ar
     8    42    43   ar
     9    44    43   ar
    10    44    36   ar
    11    46    45   ar
    12    36    35    1
    13    47    45   ar
    14    45    34    1
    15    35    34    1
    16    34    33    1
    17     8     7    2
    18    33    31   am
    19    14    12   ar
    20    32    31    2
    21    16    15    2
    22     7     9   am
    23     7     2    1
    24    31    26    1
    25    10     9    1
    26    10    15    1
    27    10    11    1
    28    12    11    1
    29    12    13   ar
    30     2     1    1
    31     2     3    1
    32    15    17   am
    33     5     4    1
    34    26    25    1
    35    26    27    1
    36    24    23    2
    37    28    27    1
    38     4     3    1
    39     4     6    1
    40    17    18    1
    41    23    25   am
    42    23    18    1
    43    27    29    1
    44    18    19    1
    45    29    30    1
    46    19    21    1
    47    19    20    1
    48    22    21    1
@<TRIPOS>MOLECULE
16219006
 44 47 0 0 0
SMALL
GASTEIGER

@<TRIPOS>ATOM
      1 O          -8.9051    2.2301    2.1342 O.2     1  PRO11      -0.2738
      2 O          -4.6854    3.5728    1.6083 O.2     5  ASP55      -0.2735
      3 O          -4.8926   -0.5280    0.9252 O.2     2  VAL22      -0.2738
      4 O          -6.2745    5.3256   -2.9065 O.2     4  TRP44      -0.2738
      5 O          -7.6678    1.4632   -2.3940 O.2     3  LEU33      -0.2738
      6 OD1        -2.7587    3.0615   -1.1044 O.co2   5  ASP55      -0.5497
      7 OD2        -1.1915    4.2349    0.0835 O.co2   5  ASP55      -0.5497
      8 N          -6.6665    4.5665    1.1681 N.am    1  PRO11      -0.2884
      9 N          -6.6932    1.6633    2.2486 N.am    2  VAL22      -0.3022
     10 N          -5.0555    4.0126   -1.4866 N.am    5  ASP55      -0.3021
     11 N          -6.7603   -0.1107   -0.3334 N.am    3  LEU33      -0.3025
     12 N          -5.4666    1.7939   -2.9479 N.am    4  TRP44      -0.3022
     13 NE1        -3.7297    0.4553   -6.8298 N.ar    4  TRP44      -0.3604
     14 CA         -7.2851    4.0502    2.3889 C.3     1  PRO11       0.1023
     15 CB         -8.4699    4.9923    2.6175 C.3     1  PRO11      -0.0243
     16 CG         -8.8741    5.3998    1.2051 C.3     1  PRO11      -0.0350
     17 CD         -7.5409    5.5041    0.4812 C.3     1  PRO11       0.0156
     18 C          -7.7278    2.5737    2.2290 C.2     1  PRO11       0.2342
     19 C          -5.3322    4.3327    0.8820 C.2     5  ASP55       0.2369
     20 CA         -6.9018    0.2243    2.0824 C.3     2  VAL22       0.1017
     21 CA         -4.7689    4.9538   -0.4206 C.3     5  ASP55       0.1047
     22 CB         -6.4940   -0.5696    3.3438 C.3     2  VAL22      -0.0197
     23 CA         -6.0669   -0.1746   -1.6170 C.3     3  LEU33       0.0996
     24 C          -6.0727   -0.1979    0.8559 C.2     2  VAL22       0.2342
     25 CB         -3.2763    5.2485   -0.3283 C.3     5  ASP55       0.0138
     26 CA         -5.7285    3.0634   -3.6345 C.3     4  TRP44       0.1034
     27 CB         -6.5033   -1.4212   -2.4003 C.3     3  LEU33      -0.0236
     28 CG         -5.8423   -1.5862   -3.7845 C.3     3  LEU33      -0.0446
     29 C          -5.7523    4.2441   -2.6376 C.2     4  TRP44       0.2343
     30 CB         -4.6799    3.3290   -4.7225 C.3     4  TRP44       0.0013
     31 C          -6.4912    1.1042   -2.3488 C.2     3  LEU33       0.2340
     32 CG1        -6.6653   -2.0803    3.1244 C.3     2  VAL22      -0.0605
     33 CG2        -7.3318   -0.1536    4.5582 C.3     2  VAL22      -0.0605
     34 CG         -4.5544    2.1996   -5.7106 C.ar    4  TRP44      -0.0201
     35 CG         -2.3281    4.0507   -0.4338 C.2     5  ASP55       0.0440
     36 CD1        -4.3257   -1.7535   -3.6895 C.3     3  LEU33      -0.0626
     37 CD2        -6.4473   -2.7898   -4.5130 C.3     3  LEU33      -0.0626
     38 CD2        -5.5544    1.7164   -6.6176 C.ar    4  TRP44       0.0029
     39 CD1        -3.4424    1.3967   -5.8812 C.ar    4  TRP44       0.0060
     40 CE2        -5.0142    0.6196   -7.2915 C.ar    4  TRP44       0.0467
     41 CE3        -6.8807    2.0942   -6.9128 C.ar    4  TRP44      -0.0523
     42 CZ2        -5.7338   -0.1195   -8.2390 C.ar    4  TRP44      -0.0378
     43 CZ3        -7.6155    1.3649   -7.8548 C.ar    4  TRP44      -0.0611
     44 CH2        -7.0482    0.2735   -8.5067 C.ar    4  TRP44      -0.0598
@<TRIPOS>BOND
     1     1    18    2
     2     2    19    2
     3     3    24    2
     4     4    29    2
     5     5    31    2
     6     6    35   ar
     7     7    35   ar
     8     8    14    1
     9     8    17    1
    10     8    19   am
    11     9    18   am
    12     9    20    1
    13    10    21    1
    14    10    29   am
    15    11    23    1
    16    11    24   am
    17    12    26    1
    18    12    31   am
    19    13    39   ar
    20    13    40   ar
    21    14    15    1
    22    14    18    1
    23    15    16    1
    24    16    17    1
    25    19    21    1
    26    20    22    1
    27    20    24    1
    28    21    25    1
    29    22    32    1
    30    22    33    1
    31    23    27    1
    32    23    31    1
    33    25    35    1
    34    26    29    1
    35    26    30    1
    36    27    28    1
    37    28    36    1
    38    28    37    1
    39    30    34    1
    40    34    38   ar
    41    34    39   ar
    42    38    40   ar
    43    38    41   ar
    44    40    42   ar
    45    41    43   ar
    46    42    44   ar
    47    43    44   ar
