@<TRIPOS>MOLECULE
../1EDN/XRAY_17-21.pdb
 47 48 0 0 0
SMALL
GASTEIGER

@<TRIPOS>ATOM
      1  N          6.4500  -19.7300   -2.8460 N.3    17  LEU17      -0.1231
      2  CA         5.2640  -20.1680   -2.1160 C.3    17  LEU17       0.1693
      3  C          4.7010  -18.8060   -1.6720 C.2    17  LEU17       0.2592
      4  O          4.3760  -17.9800   -2.5270 O.2    17  LEU17      -0.2718
      5  CB         5.6570  -21.0170   -0.8850 C.3    17  LEU17       0.0284
      6  CG         5.4050  -22.5400   -0.8470 C.3    17  LEU17       0.0019
      7  CD1        6.1110  -23.2140    0.3150 C.3    17  LEU17       0.0001
      8  CD2        3.9240  -22.7940   -0.7690 C.3    17  LEU17       0.0001
      9  N          4.7270  -18.4910   -0.3800 N.am   18  ASP18      -0.1962
     10  CA         4.1720  -17.2010    0.0630 C.3    18  ASP18       0.1783
     11  C          4.7750  -15.8130   -0.3500 C.2    18  ASP18       0.2620
     12  O          4.1570  -14.7710   -0.0750 O.2    18  ASP18      -0.2715
     13  CB         3.8720  -17.2370    1.5730 C.3    18  ASP18       0.0728
     14  CG         2.4440  -17.7210    1.8880 C.2    18  ASP18       0.0526
     15  OD1        1.8320  -18.4410    1.0660 O.co2  18  ASP18      -0.5491
     16  OD2        1.9260  -17.3730    2.9700 O.co2  18  ASP18      -0.5491
     17  N          5.9570  -15.7420   -0.9630 N.am   19  ILE19      -0.1963
     18  CA         6.4450  -14.4030   -1.3510 C.3    19  ILE19       0.1727
     19  C          5.5760  -13.9960   -2.5290 C.2    19  ILE19       0.2616
     20  O          4.8370  -13.0080   -2.4770 O.2    19  ILE19      -0.2715
     21  CB         7.9140  -14.3690   -1.8400 C.3    19  ILE19       0.0290
     22  CG1        8.8760  -14.8240   -0.7490 C.3    19  ILE19       0.0022
     23  CG2        8.2810  -12.9320   -2.2380 C.3    19  ILE19       0.0023
     24  CD1        9.3280  -13.7050    0.1860 C.3    19  ILE19       0.0001
     25  N          5.7170  -14.7750   -3.5990 N.am   20  ILE20      -0.1963
     26  CA         4.9770  -14.6140   -4.8450 C.3    20  ILE20       0.1727
     27  C          4.7560  -16.0550   -5.2510 C.2    20  ILE20       0.2615
     28  O          5.5820  -16.9240   -4.9410 O.2    20  ILE20      -0.2715
     29  CB         5.8140  -13.8870   -5.9550 C.3    20  ILE20       0.0290
     30  CG1        5.9530  -12.3980   -5.6400 C.3    20  ILE20       0.0022
     31  CG2        5.1640  -14.0490   -7.3150 C.3    20  ILE20       0.0023
     32  CD1        6.8340  -11.6390   -6.6010 C.3    20  ILE20       0.0001
     33  N          3.6520  -16.3070   -5.9350 N.am   21  TRP21      -0.1988
     34  CA         3.3300  -17.6370   -6.4010 C.3    21  TRP21       0.1456
     35  C          2.5650  -17.6270   -7.7180 C.2    21  TRP21       0.1166
     36  O          1.8980  -18.6320   -8.0750 O.co2  21  TRP21      -0.3065
     37  CB         2.6690  -18.5180   -5.3120 C.3    21  TRP21       0.0562
     38  CG         1.5690  -17.9980   -4.3600 C.ar   21  TRP21       0.0005
     39  CD1        0.7990  -18.7930   -3.5490 C.ar   21  TRP21       0.0946
     40  CD2        1.2480  -16.6350   -3.9890 C.ar   21  TRP21       0.0152
     41  CE2        0.3020  -16.7070   -2.9250 C.ar   21  TRP21       0.0810
     42  CE3        1.6680  -15.3700   -4.4360 C.ar   21  TRP21       0.0012
     43  NE1        0.0520  -18.0350   -2.6840 N.ar   21  TRP21      -0.2442
     44  CZ2       -0.2230  -15.5590   -2.2950 C.ar   21  TRP21       0.0191
     45  CZ3        1.1420  -14.2140   -3.8060 C.ar   21  TRP21       0.0001
     46  CH2        0.2070  -14.3240   -2.7450 C.ar   21  TRP21       0.0015
     47  OXT        2.7400  -16.6140   -8.4280 O.co2  21  TRP21      -0.8460
@<TRIPOS>BOND
     1    47    35   ar
     2    36    35   ar
     3    35    34    1
     4    31    29    1
     5    32    30    1
     6    34    33    1
     7    34    37    1
     8    29    30    1
     9    29    26    1
    10    33    27   am
    11    37    38    1
    12    27    28    2
    13    27    26    1
    14    26    25    1
    15    42    40   ar
    16    42    45   ar
    17    38    40   ar
    18    38    39   ar
    19    40    41   ar
    20    45    46   ar
    21    25    19   am
    22    39    43   ar
    23    41    43   ar
    24    41    44   ar
    25     1     2    1
    26    46    44   ar
    27    19    20    2
    28    19    18    1
    29     4     3    2
    30    23    21    1
    31     2     3    1
    32     2     5    1
    33    21    18    1
    34    21    22    1
    35     3     9   am
    36    18    17    1
    37    17    11   am
    38     5     6    1
    39     6     8    1
    40     6     7    1
    41    22    24    1
    42     9    10    1
    43    11    12    2
    44    11    10    1
    45    10    13    1
    46    15    14   ar
    47    13    14    1
    48    14    16   ar
@<TRIPOS>MOLECULE
16219006
 44 47 0 0 0
SMALL
GASTEIGER

@<TRIPOS>ATOM
      1 O           8.3257  -14.8606   -3.4479 O.2     1  PRO11      -0.2738
      2 O           4.6867  -15.2033   -1.2042 O.2     5  ASP55      -0.2735
      3 O           3.8444  -15.9823   -4.2392 O.2     2  VAL22      -0.2738
      4 O           6.2548  -19.7104    0.0346 O.2     4  TRP44      -0.2738
      5 O           6.6821  -19.4079   -4.2436 O.2     3  LEU33      -0.2738
      6 OD1         2.9232  -15.4185    2.7235 O.co2   5  ASP55      -0.5497
      7 OD2         5.1703  -15.4240    2.3377 O.co2   5  ASP55      -0.5497
      8 N           6.8423  -15.5881   -0.6224 N.am    1  PRO11      -0.2884
      9 N           6.0963  -14.3361   -3.3866 N.am    2  VAL22      -0.3022
     10 N           4.8058  -18.1160   -0.7555 N.am    5  ASP55      -0.3021
     11 N           5.4865  -17.0280   -5.4310 N.am    3  LEU33      -0.3025
     12 N           4.6329  -19.4714   -3.1993 N.am    4  TRP44      -0.3022
     13 NE1         0.7567  -19.6303   -1.0297 N.ar    4  TRP44      -0.3604
     14 CA          7.3224  -14.3669   -1.2647 C.3     1  PRO11       0.1023
     15 CB          8.7265  -14.1632   -0.6911 C.3     1  PRO11      -0.0243
     16 CG          9.1696  -15.5726   -0.3154 C.3     1  PRO11      -0.0350
     17 CD          7.8817  -16.2123    0.1765 C.3     1  PRO11       0.0156
     18 C           7.3304  -14.5413   -2.7996 C.2     1  PRO11       0.2342
     19 C           5.4898  -15.8451   -0.5110 C.2     5  ASP55       0.2369
     20 CA          5.8437  -14.6812   -4.7781 C.3     2  VAL22       0.1017
     21 CA          5.0454  -17.0992    0.2818 C.3     5  ASP55       0.1047
     22 CB          5.2473  -13.4968   -5.5707 C.3     2  VAL22      -0.0197
     23 CA          4.8098  -18.3132   -5.3423 C.3     3  LEU33       0.0996
     24 C           4.9476  -15.9360   -4.7801 C.2     2  VAL22       0.2342
     25 CB          3.7600  -16.8355    1.0485 C.3     5  ASP55       0.0138
     26 CA          5.0787  -20.2182   -2.0172 C.3     4  TRP44       0.1034
     27 CB          4.8888  -19.0883   -6.6607 C.3     3  LEU33      -0.0236
     28 CG          4.1674  -18.4055   -7.8422 C.3     3  LEU33      -0.0446
     29 C           5.4808  -19.3105   -0.8350 C.2     4  TRP44       0.2343
     30 CB          4.0271  -21.2563   -1.5854 C.3     4  TRP44       0.0013
     31 C           5.4862  -19.1174   -4.2177 C.2     3  LEU33       0.2340
     32 CG1         3.9154  -12.9730   -5.0275 C.3     2  VAL22      -0.0605
     33 CG2         5.1052  -13.8404   -7.0573 C.3     2  VAL22      -0.0605
     34 CG          2.7222  -20.6835   -1.1051 C.ar    4  TRP44      -0.0201
     35 CG          3.9789  -15.7910    2.1367 C.2     5  ASP55       0.0440
     36 CD1         4.2870  -19.2810   -9.0917 C.3     3  LEU33      -0.0626
     37 CD2         2.6914  -18.1210   -7.5542 C.3     3  LEU33      -0.0626
     38 CD2         2.2568  -20.6622    0.2516 C.ar    4  TRP44       0.0029
     39 CD1         1.7364  -20.0871   -1.8707 C.ar    4  TRP44       0.0060
     40 CE2         1.0303  -19.9992    0.2642 C.ar    4  TRP44       0.0467
     41 CE3         2.7758  -21.1311    1.4764 C.ar    4  TRP44      -0.0523
     42 CZ2         0.2998  -19.7743    1.4367 C.ar    4  TRP44      -0.0378
     43 CZ3         2.0521  -20.9273    2.6570 C.ar    4  TRP44      -0.0611
     44 CH2         0.8333  -20.2553    2.6348 C.ar    4  TRP44      -0.0598
@<TRIPOS>BOND
     1     1    18    2
     2     2    19    2
     3     3    24    2
     4     4    29    2
     5     5    31    2
     6     6    35   ar
     7     7    35   ar
     8     8    14    1
     9     8    17    1
    10     8    19   am
    11     9    18   am
    12     9    20    1
    13    10    21    1
    14    10    29   am
    15    11    23    1
    16    11    24   am
    17    12    26    1
    18    12    31   am
    19    13    39   ar
    20    13    40   ar
    21    14    15    1
    22    14    18    1
    23    15    16    1
    24    16    17    1
    25    19    21    1
    26    20    22    1
    27    20    24    1
    28    21    25    1
    29    22    32    1
    30    22    33    1
    31    23    27    1
    32    23    31    1
    33    25    35    1
    34    26    29    1
    35    26    30    1
    36    27    28    1
    37    28    36    1
    38    28    37    1
    39    30    34    1
    40    34    38   ar
    41    34    39   ar
    42    38    40   ar
    43    38    41   ar
    44    40    42   ar
    45    41    43   ar
    46    42    44   ar
    47    43    44   ar
