@<TRIPOS>MOLECULE
../1EDN/3STEPMIN_17-21_NOBACKBONE.pdb
 26 23 0 0 0
SMALL
GASTEIGER

@<TRIPOS>ATOM
      1  CB        -6.9230   -0.4370    0.2770 C.3    17  LEU17       0.0000
      2  CG        -6.4950   -1.8450   -0.1910 C.3    17  LEU17       0.0000
      3  CD1       -6.5150   -2.8060    0.9980 C.3    17  LEU17       0.0000
      4  CD2       -7.4310   -2.4140   -1.2600 C.3    17  LEU17       0.0000
      5  CB        -9.0510    3.1310    2.7840 C.3    18  ASP18       0.1258
      6  CG       -10.5470    3.4340    2.8500 C.2    18  ASP18       0.3654
      7  OD1      -11.3300    2.4930    2.5610 O.co2  18  ASP18      -0.2456
      8  OD2      -10.9050    4.5930    3.1470 O.co2  18  ASP18      -0.2456
      9  CB        -4.3960    5.7260    0.0740 C.3    19  ILE19       0.0000
     10  CG2       -3.6150    6.9530   -0.4300 C.3    19  ILE19       0.0000
     11  CG1       -3.7730    5.2100    1.3920 C.3    19  ILE19       0.0000
     12  CD1       -3.8620    6.1700    2.5820 C.3    19  ILE19       0.0000
     13  CB        -6.0900    6.2460   -4.5940 C.3    20  ILE20       0.0000
     14  CG2       -6.7980    6.2490   -5.9680 C.3    20  ILE20       0.0000
     15  CG1       -5.7140    7.6970   -4.2070 C.3    20  ILE20       0.0000
     16  CD1       -4.7810    8.4150   -5.1910 C.3    20  ILE20       0.0000
     17  CB        -9.7020    1.6830   -3.5450 C.3    21  TRP21       0.0327
     18  CG       -10.4970    2.2370   -2.3850 C.ar   21  TRP21      -0.0013
     19  CD1      -10.6860    1.5470   -1.2340 C.ar   21  TRP21       0.0946
     20  NE1      -11.3350    2.3340   -0.3040 N.ar   21  TRP21      -0.2442
     21  CE2      -11.5720    3.5950   -0.7990 C.ar   21  TRP21       0.0810
     22  CZ2      -12.0950    4.7480   -0.2000 C.ar   21  TRP21       0.0191
     23  CH2      -12.2340    5.9130   -0.9670 C.ar   21  TRP21       0.0015
     24  CZ3      -11.8800    5.8920   -2.3260 C.ar   21  TRP21       0.0001
     25  CE3      -11.3480    4.7280   -2.9100 C.ar   21  TRP21       0.0012
     26  CD2      -11.1270    3.5500   -2.1550 C.ar   21  TRP21       0.0152
@<TRIPOS>BOND
     1    14    13    1
     2    16    15    1
     3    13    15    1
     4    17    18    1
     5    25    24   ar
     6    25    26   ar
     7    18    26   ar
     8    18    19   ar
     9    24    23   ar
    10    26    21   ar
    11     4     2    1
    12    19    20   ar
    13    23    22   ar
    14    21    20   ar
    15    21    22   ar
    16    10     9    1
    17     2     1    1
    18     2     3    1
    19     9    11    1
    20    11    12    1
    21     7     6   ar
    22     5     6    1
    23     6     8   ar
@<TRIPOS>MOLECULE
01479498K
 57 61 0 0 0
SMALL
GASTEIGER

@<TRIPOS>ATOM
      1 C          -9.1123    2.7431   -4.5772 C.3     1  LIG11       0.1526
      2 C          -8.5482    1.6842   -3.6792 C.2     1  LIG11       0.0278
      3 C          -8.2529    4.0005   -4.7306 C.ar    1  LIG11       0.0009
      4 O         -10.4444    3.1818   -4.2057 O.3     1  LIG11      -0.4789
      5 C          -8.9601    1.4834   -2.4135 C.2     1  LIG11       0.0016
      6 C          -7.4847    0.8344   -4.3656 C.2     1  LIG11       0.0721
      7 C          -7.5702    4.5674   -3.6369 C.ar    1  LIG11      -0.0091
      8 C          -8.1966    4.6550   -5.9862 C.ar    1  LIG11      -0.0511
      9 C         -10.6797    3.2315   -2.8586 C.ar    1  LIG11       0.1298
     10 C          -9.9896    2.4356   -1.9381 C.ar    1  LIG11       0.0283
     11 C          -8.3499    0.4226   -1.5873 C.ar    1  LIG11      -0.0165
     12 O          -6.2932    1.0881   -4.0375 O.co2   1  LIG11      -0.5448
     13 O          -7.9369    0.0285   -5.2283 O.co2   1  LIG11      -0.5448
     14 C          -6.8685    5.7374   -3.8330 C.ar    1  LIG11       0.1666
     15 C          -7.4715    5.8404   -6.1571 C.ar    1  LIG11      -0.0158
     16 C         -11.6675    4.1188   -2.4356 C.ar    1  LIG11      -0.0158
     17 C         -10.2846    2.5792   -0.5724 C.ar    1  LIG11      -0.0087
     18 C          -7.2171    0.6952   -0.8138 C.ar    1  LIG11      -0.0505
     19 C          -8.9164   -0.8544   -1.5439 C.ar    1  LIG11      -0.0505
     20 C          -6.8200    6.3557   -5.0588 C.ar    1  LIG11       0.1662
     21 O          -6.1710    6.4148   -2.8802 O.3     1  LIG11      -0.4526
     22 C         -11.9270    4.2660   -1.0742 C.ar    1  LIG11      -0.0164
     23 C         -11.2108    3.5230   -0.1340 C.ar    1  LIG11       0.1217
     24 C          -6.6717   -0.2943    0.0069 C.ar    1  LIG11      -0.0194
     25 C          -8.3631   -1.8477   -0.7272 C.ar    1  LIG11      -0.0194
     26 O          -6.0807    7.4985   -5.0351 O.3     1  LIG11      -0.4526
     27 C          -5.6432    7.5019   -3.6604 C.3     1  LIG11       0.2332
     28 O         -11.5264    3.7836    1.1670 O.3     1  LIG11      -0.4893
     29 C          -7.2374   -1.5703    0.0514 C.ar    1  LIG11       0.1201
     30 C         -10.5370    3.7003    2.2028 C.3     1  LIG11       0.0946
     31 O          -6.6103   -2.4487    0.8944 O.3     1  LIG11      -0.4951
     32 C          -9.1484    4.2413    1.8581 C.3     1  LIG11      -0.0281
     33 C         -10.5160    2.3204    2.8518 C.3     1  LIG11      -0.0281
     34 C          -6.9544   -3.8189    0.7393 C.3     1  LIG11       0.0788
     35 H          -9.2452    2.3024   -5.5742 H       1  LIG11       0.0837
     36 H          -7.5820    4.1004   -2.6586 H       1  LIG11       0.0659
     37 H          -8.7252    4.2286   -6.8366 H       1  LIG11       0.0623
     38 H          -7.4250    6.3337   -7.1195 H       1  LIG11       0.0655
     39 H         -12.2063    4.7144   -3.1657 H       1  LIG11       0.0655
     40 H          -9.7619    1.9502    0.1361 H       1  LIG11       0.0661
     41 H          -6.7438    1.6722   -0.8732 H       1  LIG11       0.0625
     42 H          -9.7816   -1.0812   -2.1626 H       1  LIG11       0.0625
     43 H         -12.6743    4.9818   -0.7435 H       1  LIG11       0.0655
     44 H          -5.7837   -0.0726    0.5911 H       1  LIG11       0.0654
     45 H          -8.8337   -2.8239   -0.7300 H       1  LIG11       0.0654
     46 H          -5.9556    8.4458   -3.1986 H       1  LIG11       0.1166
     47 H          -4.5483    7.4501   -3.6401 H       1  LIG11       0.1166
     48 H         -10.9226    4.3812    2.9733 H       1  LIG11       0.0727
     49 H          -8.5690    3.5493    1.2416 H       1  LIG11       0.0265
     50 H          -9.2216    5.1886    1.3138 H       1  LIG11       0.0265
     51 H          -8.5681    4.4111    2.7716 H       1  LIG11       0.0265
     52 H         -10.1560    1.5432    2.1746 H       1  LIG11       0.0265
     53 H          -9.8758    2.3164    3.7398 H       1  LIG11       0.0265
     54 H         -11.5283    2.0296    3.1527 H       1  LIG11       0.0265
     55 H          -6.2836   -4.4049    1.3751 H       1  LIG11       0.0660
     56 H          -7.9786   -4.0056    1.0777 H       1  LIG11       0.0660
     57 H          -6.8106   -4.1546   -0.2934 H       1  LIG11       0.0660
@<TRIPOS>BOND
     1     1     4    1
     2     1     2    1
     3     1     3    1
     4     2     5    2
     5     2     6    1
     6     3     8   ar
     7     3     7   ar
     8     4     9    1
     9     5    10    1
    10     5    11    1
    11     6    13   ar
    12     6    12   ar
    13     7    14   ar
    14     8    15   ar
    15     9    16   ar
    16     9    10   ar
    17    10    17   ar
    18    11    18   ar
    19    11    19   ar
    20    14    21    1
    21    14    20   ar
    22    15    20   ar
    23    16    22   ar
    24    17    23   ar
    25    18    24   ar
    26    19    25   ar
    27    20    26    1
    28    21    27    1
    29    22    23   ar
    30    23    28    1
    31    24    29   ar
    32    25    29   ar
    33    26    27    1
    34    28    30    1
    35    29    31    1
    36    30    33    1
    37    30    32    1
    38    31    34    1
    39     1    35    1
    40     7    36    1
    41     8    37    1
    42    15    38    1
    43    16    39    1
    44    17    40    1
    45    18    41    1
    46    19    42    1
    47    22    43    1
    48    24    44    1
    49    25    45    1
    50    27    46    1
    51    27    47    1
    52    30    48    1
    53    32    49    1
    54    32    50    1
    55    32    51    1
    56    33    52    1
    57    33    53    1
    58    33    54    1
    59    34    55    1
    60    34    56    1
    61    34    57    1
@<TRIPOS>MOLECULE
../1EDN/3STEPMIN_17-21.pdb
 47 48 0 0 0
SMALL
GASTEIGER

@<TRIPOS>ATOM
      1  N         -5.4290    0.8830   -1.1740 N.3    17  LEU17      -0.1231
      2  CA        -6.8230    0.6710   -0.7980 C.3    17  LEU17       0.1693
      3  CB        -6.9230   -0.4370    0.2770 C.3    17  LEU17       0.0284
      4  CG        -6.4950   -1.8450   -0.1910 C.3    17  LEU17       0.0019
      5  CD1       -6.5150   -2.8060    0.9980 C.3    17  LEU17       0.0001
      6  CD2       -7.4310   -2.4140   -1.2600 C.3    17  LEU17       0.0001
      7  C         -7.3990    2.0370   -0.3760 C.2    17  LEU17       0.2592
      8  O         -7.4670    2.9330   -1.2040 O.2    17  LEU17      -0.2718
      9  N         -7.7380    2.2560    0.8970 N.am   18  ASP18      -0.1960
     10  CA        -8.5130    3.4280    1.3730 C.3    18  ASP18       0.1840
     11  CB        -9.0510    3.1310    2.7840 C.3    18  ASP18       0.1450
     12  CG       -10.5470    3.4340    2.8500 C.2    18  ASP18       0.3671
     13  OD1      -11.3300    2.4930    2.5610 O.co2  18  ASP18      -0.2456
     14  OD2      -10.9050    4.5930    3.1470 O.co2  18  ASP18      -0.2456
     15  C         -7.8270    4.8120    1.2910 C.2    18  ASP18       0.2622
     16  O         -8.3890    5.8210    1.7350 O.2    18  ASP18      -0.2715
     17  N         -6.6250    4.8510    0.7010 N.am   19  ILE19      -0.1963
     18  CA        -5.9180    6.0210    0.1680 C.3    19  ILE19       0.1727
     19  CB        -4.3960    5.7260    0.0740 C.3    19  ILE19       0.0290
     20  CG2       -3.6150    6.9530   -0.4300 C.3    19  ILE19       0.0023
     21  CG1       -3.7730    5.2100    1.3920 C.3    19  ILE19       0.0022
     22  CD1       -3.8620    6.1700    2.5820 C.3    19  ILE19       0.0001
     23  C         -6.4970    6.4050   -1.2110 C.2    19  ILE19       0.2616
     24  O         -7.0070    7.5130   -1.3720 O.2    19  ILE19      -0.2715
     25  N         -6.3950    5.4980   -2.1940 N.am   20  ILE20      -0.1963
     26  CA        -6.9990    5.5490   -3.5400 C.3    20  ILE20       0.1727
     27  CB        -6.0900    6.2460   -4.5940 C.3    20  ILE20       0.0290
     28  CG2       -6.7980    6.2490   -5.9680 C.3    20  ILE20       0.0023
     29  CG1       -5.7140    7.6970   -4.2070 C.3    20  ILE20       0.0022
     30  CD1       -4.7810    8.4150   -5.1910 C.3    20  ILE20       0.0001
     31  C         -7.3180    4.1070   -3.9880 C.2    20  ILE20       0.2617
     32  O         -6.4020    3.3070   -4.2100 O.2    20  ILE20      -0.2715
     33  N         -8.6100    3.8210   -4.1620 N.am   21  TRP21      -0.1938
     34  CA        -9.2240    2.5950   -4.7020 C.3    21  TRP21       0.2021
     35  CB        -9.7020    1.6830   -3.5450 C.3    21  TRP21       0.0612
     36  CG       -10.4970    2.2370   -2.3850 C.ar   21  TRP21       0.0007
     37  CD1      -10.6860    1.5470   -1.2340 C.ar   21  TRP21       0.0946
     38  NE1      -11.3350    2.3340   -0.3040 N.ar   21  TRP21      -0.2442
     39  CE2      -11.5720    3.5950   -0.7990 C.ar   21  TRP21       0.0810
     40  CZ2      -12.0950    4.7480   -0.2000 C.ar   21  TRP21       0.0191
     41  CH2      -12.2340    5.9130   -0.9670 C.ar   21  TRP21       0.0015
     42  CZ3      -11.8800    5.8920   -2.3260 C.ar   21  TRP21       0.0001
     43  CE3      -11.3480    4.7280   -2.9100 C.ar   21  TRP21       0.0012
     44  CD2      -11.1270    3.5500   -2.1550 C.ar   21  TRP21       0.0152
     45  C        -10.3230    2.8760   -5.7330 C.2    21  TRP21       0.3845
     46  O        -11.0800    1.9620   -6.0950 O.co2  21  TRP21      -0.2437
     47  OXT      -10.4270    4.0430   -6.2080 O.co2  21  TRP21      -0.2437
@<TRIPOS>BOND
     1    47    45   ar
     2    46    45   ar
     3    28    27    1
     4    45    34    1
     5    30    29    1
     6    34    33    1
     7    34    35    1
     8    27    29    1
     9    27    26    1
    10    32    31    2
    11    33    31   am
    12    31    26    1
    13    35    36    1
    14    26    25    1
    15    43    42   ar
    16    43    44   ar
    17    36    44   ar
    18    36    37   ar
    19    42    41   ar
    20    25    23   am
    21    44    39   ar
    22    24    23    2
    23     6     4    1
    24    37    38   ar
    25    23    18    1
    26     8     7    2
    27     1     2    1
    28    41    40   ar
    29    39    38   ar
    30    39    40   ar
    31     2     7    1
    32     2     3    1
    33    20    19    1
    34     7     9   am
    35     4     3    1
    36     4     5    1
    37    19    18    1
    38    19    21    1
    39    18    17    1
    40    17    15   am
    41     9    10    1
    42    15    10    1
    43    15    16    2
    44    10    11    1
    45    21    22    1
    46    13    12   ar
    47    11    12    1
    48    12    14   ar
