@<TRIPOS>MOLECULE
../1EDN/3STEPMIN_17-21_NOBACKBONE.pdb
 26 23 0 0 0
SMALL
GASTEIGER

@<TRIPOS>ATOM
      1  CB        -6.9230   -0.4370    0.2770 C.3    17  LEU17       0.0000
      2  CG        -6.4950   -1.8450   -0.1910 C.3    17  LEU17       0.0000
      3  CD1       -6.5150   -2.8060    0.9980 C.3    17  LEU17       0.0000
      4  CD2       -7.4310   -2.4140   -1.2600 C.3    17  LEU17       0.0000
      5  CB        -9.0510    3.1310    2.7840 C.3    18  ASP18       0.1258
      6  CG       -10.5470    3.4340    2.8500 C.2    18  ASP18       0.3654
      7  OD1      -11.3300    2.4930    2.5610 O.co2  18  ASP18      -0.2456
      8  OD2      -10.9050    4.5930    3.1470 O.co2  18  ASP18      -0.2456
      9  CB        -4.3960    5.7260    0.0740 C.3    19  ILE19       0.0000
     10  CG2       -3.6150    6.9530   -0.4300 C.3    19  ILE19       0.0000
     11  CG1       -3.7730    5.2100    1.3920 C.3    19  ILE19       0.0000
     12  CD1       -3.8620    6.1700    2.5820 C.3    19  ILE19       0.0000
     13  CB        -6.0900    6.2460   -4.5940 C.3    20  ILE20       0.0000
     14  CG2       -6.7980    6.2490   -5.9680 C.3    20  ILE20       0.0000
     15  CG1       -5.7140    7.6970   -4.2070 C.3    20  ILE20       0.0000
     16  CD1       -4.7810    8.4150   -5.1910 C.3    20  ILE20       0.0000
     17  CB        -9.7020    1.6830   -3.5450 C.3    21  TRP21       0.0327
     18  CG       -10.4970    2.2370   -2.3850 C.ar   21  TRP21      -0.0013
     19  CD1      -10.6860    1.5470   -1.2340 C.ar   21  TRP21       0.0946
     20  NE1      -11.3350    2.3340   -0.3040 N.ar   21  TRP21      -0.2442
     21  CE2      -11.5720    3.5950   -0.7990 C.ar   21  TRP21       0.0810
     22  CZ2      -12.0950    4.7480   -0.2000 C.ar   21  TRP21       0.0191
     23  CH2      -12.2340    5.9130   -0.9670 C.ar   21  TRP21       0.0015
     24  CZ3      -11.8800    5.8920   -2.3260 C.ar   21  TRP21       0.0001
     25  CE3      -11.3480    4.7280   -2.9100 C.ar   21  TRP21       0.0012
     26  CD2      -11.1270    3.5500   -2.1550 C.ar   21  TRP21       0.0152
@<TRIPOS>BOND
     1    14    13    1
     2    16    15    1
     3    13    15    1
     4    17    18    1
     5    25    24   ar
     6    25    26   ar
     7    18    26   ar
     8    18    19   ar
     9    24    23   ar
    10    26    21   ar
    11     4     2    1
    12    19    20   ar
    13    23    22   ar
    14    21    20   ar
    15    21    22   ar
    16    10     9    1
    17     2     1    1
    18     2     3    1
    19     9    11    1
    20    11    12    1
    21     7     6   ar
    22     5     6    1
    23     6     8   ar
@<TRIPOS>MOLECULE
11672244
 106 111 0 0 0
SMALL
GASTEIGER

@<TRIPOS>ATOM
      1 O          -7.2377    2.5819   -0.3356 O.3     1  LIG11      -0.4607
      2 O         -11.7480    7.2444   -2.8641 O.2     1  LIG11      -0.2968
      3 O          -9.0861   -3.3206   -0.9467 O.co2   1  LIG11      -0.5492
      4 O          -9.1889   -3.8375    1.2604 O.co2   1  LIG11      -0.5492
      5 O          -5.2617    1.4877   -0.8292 O.2     1  LIG11      -0.2456
      6 O          -7.3080    6.4670   -6.4106 O.3     1  LIG11      -0.5067
      7 O          -5.2944    5.6124    0.1422 O.2     1  LIG11      -0.2705
      8 O          -0.5132    5.8790    2.2830 O.co2   1  LIG11      -0.5452
      9 O          -1.1892    7.9918    1.7362 O.co2   1  LIG11      -0.5452
     10 N          -4.4975    6.9684   -1.6095 N.am    1  LIG11      -0.2815
     11 C         -10.1302    1.3385   -0.3881 C.3     1  LIG11      -0.0160
     12 C          -9.8791    2.0414   -1.7722 C.3     1  LIG11      -0.0256
     13 C          -8.7538    0.5951    0.1180 C.3     1  LIG11       0.0318
     14 C         -10.9678    3.1046   -2.2730 C.3     1  LIG11      -0.0243
     15 C         -11.2667    4.0842   -1.0808 C.3     1  LIG11      -0.0235
     16 C         -10.6073    2.3818    0.6545 C.3     1  LIG11      -0.0461
     17 C          -8.1411   -0.2487   -1.0233 C.2     1  LIG11      -0.0596
     18 C          -7.0857   -1.2943   -0.5921 C.3     1  LIG11      -0.0080
     19 C         -11.7264    3.2991    0.1627 C.3     1  LIG11      -0.0483
     20 C          -9.0980   -0.3355    1.3338 C.3     1  LIG11      -0.0392
     21 C          -9.4348    1.0018   -2.8236 C.3     1  LIG11      -0.0306
     22 C          -7.5608   -2.2118    0.5617 C.3     1  LIG11       0.0167
     23 C         -12.1381    5.3449   -1.4047 C.3     1  LIG11       0.0267
     24 C         -10.3228    3.9708   -3.3921 C.3     1  LIG11      -0.0404
     25 C          -7.9999   -1.3166    1.7434 C.3     1  LIG11      -0.0408
     26 C         -11.2699    0.2799   -0.5393 C.3     1  LIG11      -0.0584
     27 C          -8.4784   -0.0359   -2.3116 C.2     1  LIG11      -0.0835
     28 C          -7.6299    1.5885    0.6258 C.3     1  LIG11       0.1025
     29 C         -12.2355    2.4406   -2.8571 C.3     1  LIG11      -0.0590
     30 C          -6.3724   -2.0752   -1.7243 C.3     1  LIG11      -0.0405
     31 C          -6.3872   -3.0979    1.0522 C.3     1  LIG11      -0.0412
     32 C         -11.1549    5.1661   -3.8331 C.3     1  LIG11       0.0069
     33 C          -5.2175   -2.9783   -1.2261 C.3     1  LIG11      -0.0343
     34 C         -11.6300    6.0274   -2.6866 C.2     1  LIG11       0.1392
     35 C          -5.7073   -3.8766   -0.0741 C.3     1  LIG11      -0.0470
     36 C         -13.6392    5.0695   -1.5775 C.3     1  LIG11      -0.0528
     37 C         -11.9926    6.3753   -0.2528 C.3     1  LIG11      -0.0528
     38 C          -8.7257   -3.2135    0.2588 C.2     1  LIG11       0.0485
     39 C          -4.7443   -3.8732   -2.3877 C.3     1  LIG11      -0.0598
     40 C          -4.0118   -2.1254   -0.7773 C.3     1  LIG11      -0.0598
     41 C          -6.0588    2.4015   -0.9806 C.2     1  LIG11       0.3320
     42 C          -5.8323    3.4487   -2.0004 C.2     1  LIG11       0.0231
     43 C          -6.5055    4.6079   -2.0266 C.2     1  LIG11      -0.0460
     44 C          -6.1988    5.6738   -2.9791 C.ar    1  LIG11      -0.0001
     45 C          -5.2932    6.7298   -2.7562 C.ar    1  LIG11       0.0411
     46 C          -6.8635    5.5802   -4.2214 C.ar    1  LIG11      -0.0113
     47 C          -5.0977    7.6676   -3.7922 C.ar    1  LIG11      -0.0364
     48 C          -6.6604    6.5331   -5.2128 C.ar    1  LIG11       0.1175
     49 C          -5.7831    7.5803   -5.0056 C.ar    1  LIG11      -0.0184
     50 C          -4.5032    6.4006   -0.3513 C.2     1  LIG11       0.2411
     51 C          -3.3725    6.9431    0.4425 C.2     1  LIG11       0.0021
     52 C          -2.4944    6.1367    1.0550 C.2     1  LIG11      -0.0344
     53 C          -1.2897    6.7323    1.7714 C.2     1  LIG11       0.0647
     54 H          -7.8936    5.6921   -6.3972 H       1  LIG11       0.2921
     55 H          -3.7825    7.6760   -1.7284 H       1  LIG11       0.1551
     56 H          -9.0025    2.6728   -1.6214 H       1  LIG11       0.0315
     57 H         -10.2828    4.5052   -0.8116 H       1  LIG11       0.0315
     58 H          -9.7803    3.0347    0.9492 H       1  LIG11       0.0271
     59 H         -10.9417    1.8821    1.5714 H       1  LIG11       0.0271
     60 H          -6.2831   -0.6842   -0.1632 H       1  LIG11       0.0355
     61 H         -12.6379    2.7266   -0.0295 H       1  LIG11       0.0269
     62 H         -11.9673    3.9775    0.9862 H       1  LIG11       0.0269
     63 H          -9.9770   -0.9499    1.1276 H       1  LIG11       0.0275
     64 H          -9.3567    0.2770    2.2063 H       1  LIG11       0.0275
     65 H         -10.2876    0.4632   -3.2446 H       1  LIG11       0.0310
     66 H          -8.9447    1.5189   -3.6565 H       1  LIG11       0.0310
     67 H         -10.1021    3.3599   -4.2748 H       1  LIG11       0.0275
     68 H          -9.3632    4.3546   -3.0287 H       1  LIG11       0.0275
     69 H          -8.3654   -1.9175    2.5860 H       1  LIG11       0.0275
     70 H          -7.1409   -0.7630    2.1414 H       1  LIG11       0.0275
     71 H         -12.1312    0.6513   -1.0861 H       1  LIG11       0.0235
     72 H         -11.6697   -0.0258    0.4337 H       1  LIG11       0.0235
     73 H         -10.9368   -0.6234   -1.0593 H       1  LIG11       0.0235
     74 H          -8.0518   -0.6675   -3.0858 H       1  LIG11       0.0572
     75 H          -7.9870    2.1365    1.5043 H       1  LIG11       0.0706
     76 H          -6.7449    1.0586    0.9921 H       1  LIG11       0.0706
     77 H         -12.9726    2.1836   -2.0953 H       1  LIG11       0.0235
     78 H         -12.0108    1.5361   -3.4251 H       1  LIG11       0.0235
     79 H         -12.7601    3.0830   -3.5667 H       1  LIG11       0.0235
     80 H          -5.9638   -1.3647   -2.4559 H       1  LIG11       0.0276
     81 H          -7.0984   -2.6877   -2.2715 H       1  LIG11       0.0276
     82 H          -6.7195   -3.8112    1.8174 H       1  LIG11       0.0274
     83 H          -5.6368   -2.4717    1.5518 H       1  LIG11       0.0274
     84 H         -12.0295    4.8628   -4.4151 H       1  LIG11       0.0342
     85 H         -10.5385    5.7917   -4.4904 H       1  LIG11       0.0342
     86 H          -6.4105   -4.6250   -0.4612 H       1  LIG11       0.0271
     87 H          -4.8648   -4.4417    0.3452 H       1  LIG11       0.0271
     88 H         -13.8677    4.5164   -2.4891 H       1  LIG11       0.0239
     89 H         -14.1977    6.0108   -1.6588 H       1  LIG11       0.0239
     90 H         -14.0545    4.5213   -0.7263 H       1  LIG11       0.0239
     91 H         -10.9395    6.6162   -0.0674 H       1  LIG11       0.0239
     92 H         -12.4312    6.0149    0.6824 H       1  LIG11       0.0239
     93 H         -12.4995    7.3192   -0.4870 H       1  LIG11       0.0239
     94 H          -5.5553   -4.5128   -2.7532 H       1  LIG11       0.0235
     95 H          -3.9224   -4.5265   -2.0733 H       1  LIG11       0.0235
     96 H          -4.3889   -3.2710   -3.2313 H       1  LIG11       0.0235
     97 H          -4.2472   -1.4653    0.0620 H       1  LIG11       0.0235
     98 H          -3.6524   -1.4930   -1.5973 H       1  LIG11       0.0235
     99 H          -3.1771   -2.7622   -0.4622 H       1  LIG11       0.0235
    100 H          -5.0194    3.2387   -2.6851 H       1  LIG11       0.0689
    101 H          -7.2704    4.8391   -1.2897 H       1  LIG11       0.0626
    102 H          -7.5354    4.7460   -4.4028 H       1  LIG11       0.0660
    103 H          -4.4093    8.4994   -3.6588 H       1  LIG11       0.0637
    104 H          -5.6253    8.3248   -5.7800 H       1  LIG11       0.0655
    105 H          -3.2525    8.0203    0.4640 H       1  LIG11       0.0670
    106 H          -2.5983    5.0571    1.0284 H       1  LIG11       0.0637
@<TRIPOS>BOND
     1     1    41    1
     2     1    28    1
     3     2    34    2
     4     3    38   ar
     5     4    38   ar
     6     5    41    2
     7     6    48    1
     8     7    50    2
     9     8    53   ar
    10     9    53   ar
    11    10    45    1
    12    10    50   am
    13    11    16    1
    14    11    12    1
    15    11    26    1
    16    11    13    1
    17    12    14    1
    18    13    20    1
    19    13    17    1
    20    13    28    1
    21    14    15    1
    22    14    24    1
    23    14    29    1
    24    15    19    1
    25    15    23    1
    26    16    19    1
    27    17    18    1
    28    17    27    2
    29    18    30    1
    30    18    22    1
    31    20    25    1
    32    21    27    1
    33    21    12    1
    34    22    31    1
    35    22    25    1
    36    22    38    1
    37    23    34    1
    38    23    37    1
    39    23    36    1
    40    24    32    1
    41    30    33    1
    42    31    35    1
    43    32    34    1
    44    33    35    1
    45    33    40    1
    46    33    39    1
    47    41    42    1
    48    42    43    2
    49    43    44    1
    50    44    46   ar
    51    44    45   ar
    52    45    47   ar
    53    46    48   ar
    54    47    49   ar
    55    48    49   ar
    56    50    51    1
    57    51    52    2
    58    52    53    1
    59     6    54    1
    60    10    55    1
    61    12    56    1
    62    15    57    1
    63    16    58    1
    64    16    59    1
    65    18    60    1
    66    19    61    1
    67    19    62    1
    68    20    63    1
    69    20    64    1
    70    21    65    1
    71    21    66    1
    72    24    67    1
    73    24    68    1
    74    25    69    1
    75    25    70    1
    76    26    71    1
    77    26    72    1
    78    26    73    1
    79    27    74    1
    80    28    75    1
    81    28    76    1
    82    29    77    1
    83    29    78    1
    84    29    79    1
    85    30    80    1
    86    30    81    1
    87    31    82    1
    88    31    83    1
    89    32    84    1
    90    32    85    1
    91    35    86    1
    92    35    87    1
    93    36    88    1
    94    36    89    1
    95    36    90    1
    96    37    91    1
    97    37    92    1
    98    37    93    1
    99    39    94    1
   100    39    95    1
   101    39    96    1
   102    40    97    1
   103    40    98    1
   104    40    99    1
   105    42   100    1
   106    43   101    1
   107    46   102    1
   108    47   103    1
   109    49   104    1
   110    51   105    1
   111    52   106    1
@<TRIPOS>MOLECULE
../1EDN/3STEPMIN_17-21.pdb
 47 48 0 0 0
SMALL
GASTEIGER

@<TRIPOS>ATOM
      1  N         -5.4290    0.8830   -1.1740 N.3    17  LEU17      -0.1231
      2  CA        -6.8230    0.6710   -0.7980 C.3    17  LEU17       0.1693
      3  CB        -6.9230   -0.4370    0.2770 C.3    17  LEU17       0.0284
      4  CG        -6.4950   -1.8450   -0.1910 C.3    17  LEU17       0.0019
      5  CD1       -6.5150   -2.8060    0.9980 C.3    17  LEU17       0.0001
      6  CD2       -7.4310   -2.4140   -1.2600 C.3    17  LEU17       0.0001
      7  C         -7.3990    2.0370   -0.3760 C.2    17  LEU17       0.2592
      8  O         -7.4670    2.9330   -1.2040 O.2    17  LEU17      -0.2718
      9  N         -7.7380    2.2560    0.8970 N.am   18  ASP18      -0.1960
     10  CA        -8.5130    3.4280    1.3730 C.3    18  ASP18       0.1840
     11  CB        -9.0510    3.1310    2.7840 C.3    18  ASP18       0.1450
     12  CG       -10.5470    3.4340    2.8500 C.2    18  ASP18       0.3671
     13  OD1      -11.3300    2.4930    2.5610 O.co2  18  ASP18      -0.2456
     14  OD2      -10.9050    4.5930    3.1470 O.co2  18  ASP18      -0.2456
     15  C         -7.8270    4.8120    1.2910 C.2    18  ASP18       0.2622
     16  O         -8.3890    5.8210    1.7350 O.2    18  ASP18      -0.2715
     17  N         -6.6250    4.8510    0.7010 N.am   19  ILE19      -0.1963
     18  CA        -5.9180    6.0210    0.1680 C.3    19  ILE19       0.1727
     19  CB        -4.3960    5.7260    0.0740 C.3    19  ILE19       0.0290
     20  CG2       -3.6150    6.9530   -0.4300 C.3    19  ILE19       0.0023
     21  CG1       -3.7730    5.2100    1.3920 C.3    19  ILE19       0.0022
     22  CD1       -3.8620    6.1700    2.5820 C.3    19  ILE19       0.0001
     23  C         -6.4970    6.4050   -1.2110 C.2    19  ILE19       0.2616
     24  O         -7.0070    7.5130   -1.3720 O.2    19  ILE19      -0.2715
     25  N         -6.3950    5.4980   -2.1940 N.am   20  ILE20      -0.1963
     26  CA        -6.9990    5.5490   -3.5400 C.3    20  ILE20       0.1727
     27  CB        -6.0900    6.2460   -4.5940 C.3    20  ILE20       0.0290
     28  CG2       -6.7980    6.2490   -5.9680 C.3    20  ILE20       0.0023
     29  CG1       -5.7140    7.6970   -4.2070 C.3    20  ILE20       0.0022
     30  CD1       -4.7810    8.4150   -5.1910 C.3    20  ILE20       0.0001
     31  C         -7.3180    4.1070   -3.9880 C.2    20  ILE20       0.2617
     32  O         -6.4020    3.3070   -4.2100 O.2    20  ILE20      -0.2715
     33  N         -8.6100    3.8210   -4.1620 N.am   21  TRP21      -0.1938
     34  CA        -9.2240    2.5950   -4.7020 C.3    21  TRP21       0.2021
     35  CB        -9.7020    1.6830   -3.5450 C.3    21  TRP21       0.0612
     36  CG       -10.4970    2.2370   -2.3850 C.ar   21  TRP21       0.0007
     37  CD1      -10.6860    1.5470   -1.2340 C.ar   21  TRP21       0.0946
     38  NE1      -11.3350    2.3340   -0.3040 N.ar   21  TRP21      -0.2442
     39  CE2      -11.5720    3.5950   -0.7990 C.ar   21  TRP21       0.0810
     40  CZ2      -12.0950    4.7480   -0.2000 C.ar   21  TRP21       0.0191
     41  CH2      -12.2340    5.9130   -0.9670 C.ar   21  TRP21       0.0015
     42  CZ3      -11.8800    5.8920   -2.3260 C.ar   21  TRP21       0.0001
     43  CE3      -11.3480    4.7280   -2.9100 C.ar   21  TRP21       0.0012
     44  CD2      -11.1270    3.5500   -2.1550 C.ar   21  TRP21       0.0152
     45  C        -10.3230    2.8760   -5.7330 C.2    21  TRP21       0.3845
     46  O        -11.0800    1.9620   -6.0950 O.co2  21  TRP21      -0.2437
     47  OXT      -10.4270    4.0430   -6.2080 O.co2  21  TRP21      -0.2437
@<TRIPOS>BOND
     1    47    45   ar
     2    46    45   ar
     3    28    27    1
     4    45    34    1
     5    30    29    1
     6    34    33    1
     7    34    35    1
     8    27    29    1
     9    27    26    1
    10    32    31    2
    11    33    31   am
    12    31    26    1
    13    35    36    1
    14    26    25    1
    15    43    42   ar
    16    43    44   ar
    17    36    44   ar
    18    36    37   ar
    19    42    41   ar
    20    25    23   am
    21    44    39   ar
    22    24    23    2
    23     6     4    1
    24    37    38   ar
    25    23    18    1
    26     8     7    2
    27     1     2    1
    28    41    40   ar
    29    39    38   ar
    30    39    40   ar
    31     2     7    1
    32     2     3    1
    33    20    19    1
    34     7     9   am
    35     4     3    1
    36     4     5    1
    37    19    18    1
    38    19    21    1
    39    18    17    1
    40    17    15   am
    41     9    10    1
    42    15    10    1
    43    15    16    2
    44    10    11    1
    45    21    22    1
    46    13    12   ar
    47    11    12    1
    48    12    14   ar
