@<TRIPOS>MOLECULE
../1EDN/3STEPMIN_17-21_NOBACKBONE.pdb
 26 23 0 0 0
SMALL
GASTEIGER

@<TRIPOS>ATOM
      1  CB        -6.9230   -0.4370    0.2770 C.3    17  LEU17       0.0000
      2  CG        -6.4950   -1.8450   -0.1910 C.3    17  LEU17       0.0000
      3  CD1       -6.5150   -2.8060    0.9980 C.3    17  LEU17       0.0000
      4  CD2       -7.4310   -2.4140   -1.2600 C.3    17  LEU17       0.0000
      5  CB        -9.0510    3.1310    2.7840 C.3    18  ASP18       0.1258
      6  CG       -10.5470    3.4340    2.8500 C.2    18  ASP18       0.3654
      7  OD1      -11.3300    2.4930    2.5610 O.co2  18  ASP18      -0.2456
      8  OD2      -10.9050    4.5930    3.1470 O.co2  18  ASP18      -0.2456
      9  CB        -4.3960    5.7260    0.0740 C.3    19  ILE19       0.0000
     10  CG2       -3.6150    6.9530   -0.4300 C.3    19  ILE19       0.0000
     11  CG1       -3.7730    5.2100    1.3920 C.3    19  ILE19       0.0000
     12  CD1       -3.8620    6.1700    2.5820 C.3    19  ILE19       0.0000
     13  CB        -6.0900    6.2460   -4.5940 C.3    20  ILE20       0.0000
     14  CG2       -6.7980    6.2490   -5.9680 C.3    20  ILE20       0.0000
     15  CG1       -5.7140    7.6970   -4.2070 C.3    20  ILE20       0.0000
     16  CD1       -4.7810    8.4150   -5.1910 C.3    20  ILE20       0.0000
     17  CB        -9.7020    1.6830   -3.5450 C.3    21  TRP21       0.0327
     18  CG       -10.4970    2.2370   -2.3850 C.ar   21  TRP21      -0.0013
     19  CD1      -10.6860    1.5470   -1.2340 C.ar   21  TRP21       0.0946
     20  NE1      -11.3350    2.3340   -0.3040 N.ar   21  TRP21      -0.2442
     21  CE2      -11.5720    3.5950   -0.7990 C.ar   21  TRP21       0.0810
     22  CZ2      -12.0950    4.7480   -0.2000 C.ar   21  TRP21       0.0191
     23  CH2      -12.2340    5.9130   -0.9670 C.ar   21  TRP21       0.0015
     24  CZ3      -11.8800    5.8920   -2.3260 C.ar   21  TRP21       0.0001
     25  CE3      -11.3480    4.7280   -2.9100 C.ar   21  TRP21       0.0012
     26  CD2      -11.1270    3.5500   -2.1550 C.ar   21  TRP21       0.0152
@<TRIPOS>BOND
     1    14    13    1
     2    16    15    1
     3    13    15    1
     4    17    18    1
     5    25    24   ar
     6    25    26   ar
     7    18    26   ar
     8    18    19   ar
     9    24    23   ar
    10    26    21   ar
    11     4     2    1
    12    19    20   ar
    13    23    22   ar
    14    21    20   ar
    15    21    22   ar
    16    10     9    1
    17     2     1    1
    18     2     3    1
    19     9    11    1
    20    11    12    1
    21     7     6   ar
    22     5     6    1
    23     6     8   ar
@<TRIPOS>MOLECULE
9871593
 62 65 0 0 0
SMALL
GASTEIGER

@<TRIPOS>ATOM
      1 O          -6.9947   -0.5436    1.0039 O.3     1  LIG11      -0.4526
      2 O          -6.4732   -2.2083   -0.6609 O.3     1  LIG11      -0.4526
      3 O          -6.5858    6.3345   -6.8450 O.3     1  LIG11      -0.4913
      4 O          -5.6230    6.5240   -2.0706 O.3     1  LIG11      -0.4913
      5 O          -5.1882    7.5372   -4.7432 O.3     1  LIG11      -0.4885
      6 O         -11.0423    4.4060   -4.3542 O.2     1  LIG11      -0.2870
      7 O         -12.2256    1.5142   -2.0540 O.co2   1  LIG11      -0.5446
      8 O         -11.1804    1.9076   -0.0531 O.co2   1  LIG11      -0.5446
      9 O         -13.4157    6.2796    1.2460 O.3     1  LIG11      -0.4951
     10 C          -8.5864    3.0098   -3.9815 C.3     1  LIG11       0.0021
     11 C          -9.7215    2.9682   -2.9842 C.2     1  LIG11       0.0135
     12 C          -7.7875    4.2928   -4.0991 C.ar    1  LIG11      -0.0358
     13 C          -9.8979    1.9868   -2.0667 C.2     1  LIG11       0.0117
     14 C          -8.9514    0.8956   -1.7621 C.ar    1  LIG11      -0.0121
     15 C         -10.7757    4.0217   -3.2133 C.2     1  LIG11       0.1901
     16 C          -7.1418    4.8625   -2.9968 C.ar    1  LIG11      -0.0126
     17 C          -7.5726    4.8555   -5.3604 C.ar    1  LIG11      -0.0126
     18 C          -8.3904    0.8003   -0.4779 C.ar    1  LIG11      -0.0084
     19 C          -7.5735   -0.2734   -0.1982 C.ar    1  LIG11       0.1668
     20 C          -8.6422   -0.0887   -2.7280 C.ar    1  LIG11      -0.0503
     21 C          -7.2769   -1.2229   -1.1476 C.ar    1  LIG11       0.1663
     22 C          -6.7323    5.9603   -5.5285 C.ar    1  LIG11       0.1654
     23 C          -6.2775    5.9665   -3.1409 C.ar    1  LIG11       0.1654
     24 C         -11.4411    4.6829   -2.0578 C.ar    1  LIG11       0.0222
     25 C          -6.0527    6.5190   -4.4249 C.ar    1  LIG11       0.2035
     26 C          -7.7827   -1.1519   -2.4271 C.ar    1  LIG11      -0.0156
     27 C         -11.2391    1.7757   -1.3083 C.2     1  LIG11       0.0726
     28 C          -6.4068   -1.8286    0.7297 C.3     1  LIG11       0.2332
     29 C         -12.7989    5.0042   -2.1695 C.ar    1  LIG11      -0.0475
     30 C         -10.7556    4.9784   -0.8738 C.ar    1  LIG11      -0.0475
     31 C         -13.4854    5.5521   -1.0820 C.ar    1  LIG11      -0.0193
     32 C         -11.4447    5.5292    0.2112 C.ar    1  LIG11      -0.0193
     33 C         -12.8138    5.7830    0.1196 C.ar    1  LIG11       0.1201
     34 C          -6.5541    7.7361   -7.0867 C.3     1  LIG11       0.0790
     35 C          -5.7375    5.8873   -0.8043 C.3     1  LIG11       0.0790
     36 C          -4.4107    8.1609   -3.7377 C.3     1  LIG11       0.0791
     37 C         -14.6923    5.6977    1.5040 C.3     1  LIG11       0.0788
     38 H          -9.0096    2.7570   -4.9634 H       1  LIG11       0.0363
     39 H          -7.8449    2.2287   -3.7860 H       1  LIG11       0.0363
     40 H          -7.3121    4.3990   -2.0295 H       1  LIG11       0.0658
     41 H          -8.0555    4.4249   -6.2359 H       1  LIG11       0.0658
     42 H          -8.6432    1.5184    0.2968 H       1  LIG11       0.0661
     43 H          -9.0977   -0.0335   -3.7150 H       1  LIG11       0.0625
     44 H          -7.5501   -1.9090   -3.1656 H       1  LIG11       0.0655
     45 H          -6.9276   -2.5889    1.3256 H       1  LIG11       0.1166
     46 H          -5.3558   -1.8054    1.0373 H       1  LIG11       0.1166
     47 H         -13.3318    4.7743   -3.0890 H       1  LIG11       0.0626
     48 H          -9.7053    4.7307   -0.7618 H       1  LIG11       0.0626
     49 H         -14.5424    5.7672   -1.1883 H       1  LIG11       0.0654
     50 H         -10.9236    5.7013    1.1482 H       1  LIG11       0.0654
     51 H          -6.9716    7.9083   -8.0839 H       1  LIG11       0.0660
     52 H          -5.5197    8.0926   -7.1050 H       1  LIG11       0.0660
     53 H          -7.1584    8.3061   -6.3727 H       1  LIG11       0.0660
     54 H          -5.0992    6.4318   -0.1019 H       1  LIG11       0.0660
     55 H          -5.3760    4.8545   -0.8447 H       1  LIG11       0.0660
     56 H          -6.7643    5.9399   -0.4288 H       1  LIG11       0.0660
     57 H          -3.7953    8.9233   -4.2269 H       1  LIG11       0.0660
     58 H          -3.7229    7.4528   -3.2655 H       1  LIG11       0.0660
     59 H          -5.0418    8.6805   -3.0109 H       1  LIG11       0.0660
     60 H         -14.9293    5.8655    2.5593 H       1  LIG11       0.0660
     61 H         -14.6981    4.6151    1.3301 H       1  LIG11       0.0660
     62 H         -15.4655    6.1916    0.9068 H       1  LIG11       0.0660
@<TRIPOS>BOND
     1     1    19    1
     2     1    28    1
     3     2    28    1
     4     2    21    1
     5     3    22    1
     6     3    34    1
     7     4    23    1
     8     4    35    1
     9     5    25    1
    10     5    36    1
    11     6    15    2
    12     7    27   ar
    13     8    27   ar
    14     9    33    1
    15     9    37    1
    16    10    11    1
    17    10    12    1
    18    11    13    2
    19    11    15    1
    20    12    16   ar
    21    12    17   ar
    22    13    14    1
    23    13    27    1
    24    14    20   ar
    25    14    18   ar
    26    15    24    1
    27    16    23   ar
    28    17    22   ar
    29    18    19   ar
    30    19    21   ar
    31    20    26   ar
    32    21    26   ar
    33    22    25   ar
    34    23    25   ar
    35    24    29   ar
    36    24    30   ar
    37    29    31   ar
    38    30    32   ar
    39    31    33   ar
    40    32    33   ar
    41    10    38    1
    42    10    39    1
    43    16    40    1
    44    17    41    1
    45    18    42    1
    46    20    43    1
    47    26    44    1
    48    28    45    1
    49    28    46    1
    50    29    47    1
    51    30    48    1
    52    31    49    1
    53    32    50    1
    54    34    51    1
    55    34    52    1
    56    34    53    1
    57    35    54    1
    58    35    55    1
    59    35    56    1
    60    36    57    1
    61    36    58    1
    62    36    59    1
    63    37    60    1
    64    37    61    1
    65    37    62    1
@<TRIPOS>MOLECULE
../1EDN/3STEPMIN_17-21.pdb
 47 48 0 0 0
SMALL
GASTEIGER

@<TRIPOS>ATOM
      1  N         -5.4290    0.8830   -1.1740 N.3    17  LEU17      -0.1231
      2  CA        -6.8230    0.6710   -0.7980 C.3    17  LEU17       0.1693
      3  CB        -6.9230   -0.4370    0.2770 C.3    17  LEU17       0.0284
      4  CG        -6.4950   -1.8450   -0.1910 C.3    17  LEU17       0.0019
      5  CD1       -6.5150   -2.8060    0.9980 C.3    17  LEU17       0.0001
      6  CD2       -7.4310   -2.4140   -1.2600 C.3    17  LEU17       0.0001
      7  C         -7.3990    2.0370   -0.3760 C.2    17  LEU17       0.2592
      8  O         -7.4670    2.9330   -1.2040 O.2    17  LEU17      -0.2718
      9  N         -7.7380    2.2560    0.8970 N.am   18  ASP18      -0.1960
     10  CA        -8.5130    3.4280    1.3730 C.3    18  ASP18       0.1840
     11  CB        -9.0510    3.1310    2.7840 C.3    18  ASP18       0.1450
     12  CG       -10.5470    3.4340    2.8500 C.2    18  ASP18       0.3671
     13  OD1      -11.3300    2.4930    2.5610 O.co2  18  ASP18      -0.2456
     14  OD2      -10.9050    4.5930    3.1470 O.co2  18  ASP18      -0.2456
     15  C         -7.8270    4.8120    1.2910 C.2    18  ASP18       0.2622
     16  O         -8.3890    5.8210    1.7350 O.2    18  ASP18      -0.2715
     17  N         -6.6250    4.8510    0.7010 N.am   19  ILE19      -0.1963
     18  CA        -5.9180    6.0210    0.1680 C.3    19  ILE19       0.1727
     19  CB        -4.3960    5.7260    0.0740 C.3    19  ILE19       0.0290
     20  CG2       -3.6150    6.9530   -0.4300 C.3    19  ILE19       0.0023
     21  CG1       -3.7730    5.2100    1.3920 C.3    19  ILE19       0.0022
     22  CD1       -3.8620    6.1700    2.5820 C.3    19  ILE19       0.0001
     23  C         -6.4970    6.4050   -1.2110 C.2    19  ILE19       0.2616
     24  O         -7.0070    7.5130   -1.3720 O.2    19  ILE19      -0.2715
     25  N         -6.3950    5.4980   -2.1940 N.am   20  ILE20      -0.1963
     26  CA        -6.9990    5.5490   -3.5400 C.3    20  ILE20       0.1727
     27  CB        -6.0900    6.2460   -4.5940 C.3    20  ILE20       0.0290
     28  CG2       -6.7980    6.2490   -5.9680 C.3    20  ILE20       0.0023
     29  CG1       -5.7140    7.6970   -4.2070 C.3    20  ILE20       0.0022
     30  CD1       -4.7810    8.4150   -5.1910 C.3    20  ILE20       0.0001
     31  C         -7.3180    4.1070   -3.9880 C.2    20  ILE20       0.2617
     32  O         -6.4020    3.3070   -4.2100 O.2    20  ILE20      -0.2715
     33  N         -8.6100    3.8210   -4.1620 N.am   21  TRP21      -0.1938
     34  CA        -9.2240    2.5950   -4.7020 C.3    21  TRP21       0.2021
     35  CB        -9.7020    1.6830   -3.5450 C.3    21  TRP21       0.0612
     36  CG       -10.4970    2.2370   -2.3850 C.ar   21  TRP21       0.0007
     37  CD1      -10.6860    1.5470   -1.2340 C.ar   21  TRP21       0.0946
     38  NE1      -11.3350    2.3340   -0.3040 N.ar   21  TRP21      -0.2442
     39  CE2      -11.5720    3.5950   -0.7990 C.ar   21  TRP21       0.0810
     40  CZ2      -12.0950    4.7480   -0.2000 C.ar   21  TRP21       0.0191
     41  CH2      -12.2340    5.9130   -0.9670 C.ar   21  TRP21       0.0015
     42  CZ3      -11.8800    5.8920   -2.3260 C.ar   21  TRP21       0.0001
     43  CE3      -11.3480    4.7280   -2.9100 C.ar   21  TRP21       0.0012
     44  CD2      -11.1270    3.5500   -2.1550 C.ar   21  TRP21       0.0152
     45  C        -10.3230    2.8760   -5.7330 C.2    21  TRP21       0.3845
     46  O        -11.0800    1.9620   -6.0950 O.co2  21  TRP21      -0.2437
     47  OXT      -10.4270    4.0430   -6.2080 O.co2  21  TRP21      -0.2437
@<TRIPOS>BOND
     1    47    45   ar
     2    46    45   ar
     3    28    27    1
     4    45    34    1
     5    30    29    1
     6    34    33    1
     7    34    35    1
     8    27    29    1
     9    27    26    1
    10    32    31    2
    11    33    31   am
    12    31    26    1
    13    35    36    1
    14    26    25    1
    15    43    42   ar
    16    43    44   ar
    17    36    44   ar
    18    36    37   ar
    19    42    41   ar
    20    25    23   am
    21    44    39   ar
    22    24    23    2
    23     6     4    1
    24    37    38   ar
    25    23    18    1
    26     8     7    2
    27     1     2    1
    28    41    40   ar
    29    39    38   ar
    30    39    40   ar
    31     2     7    1
    32     2     3    1
    33    20    19    1
    34     7     9   am
    35     4     3    1
    36     4     5    1
    37    19    18    1
    38    19    21    1
    39    18    17    1
    40    17    15   am
    41     9    10    1
    42    15    10    1
    43    15    16    2
    44    10    11    1
    45    21    22    1
    46    13    12   ar
    47    11    12    1
    48    12    14   ar
