@<TRIPOS>MOLECULE
../1EDN/3STEPMIN_17-21_NOBACKBONE.pdb
 26 23 0 0 0
SMALL
GASTEIGER

@<TRIPOS>ATOM
      1  CB        -6.9230   -0.4370    0.2770 C.3    17  LEU17       0.0000
      2  CG        -6.4950   -1.8450   -0.1910 C.3    17  LEU17       0.0000
      3  CD1       -6.5150   -2.8060    0.9980 C.3    17  LEU17       0.0000
      4  CD2       -7.4310   -2.4140   -1.2600 C.3    17  LEU17       0.0000
      5  CB        -9.0510    3.1310    2.7840 C.3    18  ASP18       0.1258
      6  CG       -10.5470    3.4340    2.8500 C.2    18  ASP18       0.3654
      7  OD1      -11.3300    2.4930    2.5610 O.co2  18  ASP18      -0.2456
      8  OD2      -10.9050    4.5930    3.1470 O.co2  18  ASP18      -0.2456
      9  CB        -4.3960    5.7260    0.0740 C.3    19  ILE19       0.0000
     10  CG2       -3.6150    6.9530   -0.4300 C.3    19  ILE19       0.0000
     11  CG1       -3.7730    5.2100    1.3920 C.3    19  ILE19       0.0000
     12  CD1       -3.8620    6.1700    2.5820 C.3    19  ILE19       0.0000
     13  CB        -6.0900    6.2460   -4.5940 C.3    20  ILE20       0.0000
     14  CG2       -6.7980    6.2490   -5.9680 C.3    20  ILE20       0.0000
     15  CG1       -5.7140    7.6970   -4.2070 C.3    20  ILE20       0.0000
     16  CD1       -4.7810    8.4150   -5.1910 C.3    20  ILE20       0.0000
     17  CB        -9.7020    1.6830   -3.5450 C.3    21  TRP21       0.0327
     18  CG       -10.4970    2.2370   -2.3850 C.ar   21  TRP21      -0.0013
     19  CD1      -10.6860    1.5470   -1.2340 C.ar   21  TRP21       0.0946
     20  NE1      -11.3350    2.3340   -0.3040 N.ar   21  TRP21      -0.2442
     21  CE2      -11.5720    3.5950   -0.7990 C.ar   21  TRP21       0.0810
     22  CZ2      -12.0950    4.7480   -0.2000 C.ar   21  TRP21       0.0191
     23  CH2      -12.2340    5.9130   -0.9670 C.ar   21  TRP21       0.0015
     24  CZ3      -11.8800    5.8920   -2.3260 C.ar   21  TRP21       0.0001
     25  CE3      -11.3480    4.7280   -2.9100 C.ar   21  TRP21       0.0012
     26  CD2      -11.1270    3.5500   -2.1550 C.ar   21  TRP21       0.0152
@<TRIPOS>BOND
     1    14    13    1
     2    16    15    1
     3    13    15    1
     4    17    18    1
     5    25    24   ar
     6    25    26   ar
     7    18    26   ar
     8    18    19   ar
     9    24    23   ar
    10    26    21   ar
    11     4     2    1
    12    19    20   ar
    13    23    22   ar
    14    21    20   ar
    15    21    22   ar
    16    10     9    1
    17     2     1    1
    18     2     3    1
    19     9    11    1
    20    11    12    1
    21     7     6   ar
    22     5     6    1
    23     6     8   ar
@<TRIPOS>MOLECULE
HTS1204-03362316-01
 87 90 0 0 0
SMALL
USER_CHARGES

@<TRIPOS>ATOM
      1 C1         -8.5724    1.3512    2.1852 C.ar    1  UNK11      -0.0199
      2 N1         -9.2954   -0.6812    1.6026 N.ar    1  UNK11      -0.3494
      3 C2         -6.1426    6.7047   -2.1603 C.2     1  UNK11       0.3028
      4 C3         -9.6262    0.4618    2.2712 C.ar    1  UNK11       0.0086
      5 C4        -10.2581    3.8109    1.1815 C.2     1  UNK11       0.2342
      6 C5         -7.5411    0.6857    1.4433 C.ar    1  UNK11       0.0031
      7 C6         -7.0942    5.1695    0.5759 C.2     1  UNK11       0.2340
      8 C7         -8.0344   -0.5674    1.0603 C.ar    1  UNK11       0.0491
      9 N2         -6.2047    5.4020   -1.7279 N.am    1  UNK11      -0.2879
     10 N3         -6.5680    6.8781   -3.4731 N.am    1  UNK11      -0.2856
     11 N4         -7.7939    4.0020    0.8001 N.am    1  UNK11      -0.3022
     12 N5        -10.3944    4.5684    0.0384 N.am    1  UNK11      -0.3054
     13 C8         -8.8526    3.8929    1.8124 C.3     1  UNK11       0.1034
     14 C9         -5.8830    4.9844   -0.3593 C.3     1  UNK11       0.1011
     15 C10       -11.6622    4.6777   -0.7182 C.3     1  UNK11       0.0680
     16 C11        -8.5612    2.7332    2.7869 C.3     1  UNK11       0.0013
     17 C12       -12.0399    6.1580   -1.0143 C.2     1  UNK11       0.0623
     18 C13       -11.5238    4.1162   -2.1420 C.3     1  UNK11       0.0133
     19 O1         -5.7214    7.6317   -1.4762 O.2     1  UNK11      -0.2526
     20 O2         -7.3963    6.2335    1.1022 O.2     1  UNK11      -0.2738
     21 O3        -11.1890    3.2135    1.7178 O.2     1  UNK11      -0.2738
     22 N6        -12.0029    1.7089   -2.2784 N.ar    1  UNK11      -0.2598
     23 O4        -11.0425    6.9439   -1.0541 O.co2   1  UNK11      -0.5479
     24 C14        -4.5988    5.5981    0.2334 C.3     1  UNK11      -0.0236
     25 C15       -11.0596    2.6785   -2.1855 C.ar    1  UNK11       0.0434
     26 O5        -13.2639    6.3982   -1.2036 O.co2   1  UNK11      -0.5479
     27 C16       -10.1538   -1.8380    1.4911 C.3     1  UNK11       0.0119
     28 C17        -6.6149    5.7963   -4.4620 C.3     1  UNK11       0.0161
     29 C18        -6.8386    8.2389   -3.9229 C.3     1  UNK11       0.0161
     30 C19        -7.2897   -1.4581    0.2691 C.ar    1  UNK11      -0.0376
     31 C20        -6.2331    1.0366    1.0463 C.ar    1  UNK11      -0.0523
     32 C21        -4.0565    4.8685    1.4882 C.3     1  UNK11      -0.0446
     33 C22       -11.5746    0.4289   -2.2726 C.ar    1  UNK11       0.0279
     34 C23        -9.6948    2.3853   -2.1285 C.ar    1  UNK11      -0.0403
     35 C24        -4.8243    5.2162    2.7681 C.3     1  UNK11      -0.0626
     36 C25        -2.5814    5.2271    1.6939 C.3     1  UNK11      -0.0626
     37 C26        -6.5366    6.2335   -5.9284 C.3     1  UNK11      -0.0371
     38 C27        -5.6466    8.8912   -4.6263 C.3     1  UNK11      -0.0371
     39 C28        -5.4857    0.1622    0.2497 C.ar    1  UNK11      -0.0611
     40 C29        -6.0125   -1.0656   -0.1382 C.ar    1  UNK11      -0.0598
     41 C30       -10.2428    0.0567   -2.2019 C.ar    1  UNK11      -0.0436
     42 C31        -9.2855    1.0581   -2.1316 C.ar    1  UNK11      -0.0586
     43 C32        -5.2589    6.9768   -6.3267 C.3     1  UNK11      -0.0516
     44 C33        -4.6626    7.9307   -5.2937 C.3     1  UNK11      -0.0516
     45 H         -10.5967    0.5795    2.7394 H       1  UNK11       0.0812
     46 H          -6.9978    4.9290   -2.1332 H       1  UNK11       0.1510
     47 H          -7.7174    3.2268    0.1551 H       1  UNK11       0.1495
     48 H          -9.8210    5.4105   -0.0449 H       1  UNK11       0.1494
     49 H          -8.8531    4.8160    2.4057 H       1  UNK11       0.0598
     50 H          -5.7025    3.9064   -0.4610 H       1  UNK11       0.0595
     51 H         -12.4655    4.1750   -0.1694 H       1  UNK11       0.0564
     52 H          -9.2918    2.7628    3.6064 H       1  UNK11       0.0337
     53 H          -7.5795    2.8931    3.2524 H       1  UNK11       0.0337
     54 H         -10.8209    4.7179   -2.7364 H       1  UNK11       0.0350
     55 H         -12.4868    4.1813   -2.6664 H       1  UNK11       0.0350
     56 H          -4.7492    6.6541    0.4859 H       1  UNK11       0.0290
     57 H          -3.8272    5.5707   -0.5477 H       1  UNK11       0.0290
     58 H         -11.0233   -1.7146    2.1423 H       1  UNK11       0.0456
     59 H          -9.5910   -2.7217    1.8026 H       1  UNK11       0.0456
     60 H         -10.4750   -1.9312    0.4513 H       1  UNK11       0.0456
     61 H          -7.5611    5.2656   -4.3033 H       1  UNK11       0.0465
     62 H          -5.8043    5.0891   -4.2502 H       1  UNK11       0.0465
     63 H          -7.1277    8.8611   -3.0664 H       1  UNK11       0.0465
     64 H          -7.7202    8.2222   -4.5727 H       1  UNK11       0.0465
     65 H          -7.6913   -2.4219   -0.0256 H       1  UNK11       0.0638
     66 H          -5.8064    1.9847    1.3569 H       1  UNK11       0.0624
     67 H          -4.1140    3.7854    1.3307 H       1  UNK11       0.0296
     68 H         -12.3639   -0.3148   -2.3242 H       1  UNK11       0.0829
     69 H          -8.9727    3.1904   -2.0598 H       1  UNK11       0.0635
     70 H          -4.9201    6.3004    2.8939 H       1  UNK11       0.0232
     71 H          -4.3119    4.8211    3.6520 H       1  UNK11       0.0232
     72 H          -5.8246    4.7799    2.7732 H       1  UNK11       0.0232
     73 H          -2.4519    6.3047    1.8436 H       1  UNK11       0.0232
     74 H          -1.9841    4.9270    0.8273 H       1  UNK11       0.0232
     75 H          -2.1741    4.7108    2.5700 H       1  UNK11       0.0232
     76 H          -7.4045    6.8519   -6.1842 H       1  UNK11       0.0280
     77 H          -6.6251    5.3429   -6.5642 H       1  UNK11       0.0280
     78 H          -5.0847    9.4732   -3.8846 H       1  UNK11       0.0280
     79 H          -6.0187    9.6183   -5.3584 H       1  UNK11       0.0280
     80 H          -4.4842    0.4445   -0.0644 H       1  UNK11       0.0618
     81 H          -5.4205   -1.7346   -0.7583 H       1  UNK11       0.0618
     82 H          -9.9588   -0.9881   -2.1920 H       1  UNK11       0.0633
     83 H          -8.2307    0.8079   -2.0612 H       1  UNK11       0.0619
     84 H          -5.4579    7.5300   -7.2532 H       1  UNK11       0.0266
     85 H          -4.4881    6.2376   -6.5812 H       1  UNK11       0.0266
     86 H          -4.1480    7.3461   -4.5204 H       1  UNK11       0.0266
     87 H          -3.8760    8.5216   -5.7807 H       1  UNK11       0.0266
@<TRIPOS>BOND
     1     2     4   ar
     2     3     9   am
     3     1     4   ar
     4     5    13    1
     5     1     6   ar
     6     7    11   am
     7     6     8   ar
     8     9    14    1
     9     3    10   am
    10    11    13    1
    11     5    12   am
    12    13    16    1
    13     7    14    1
    14    12    15    1
    15     1    16    1
    16    15    17    1
    17    15    18    1
    18     3    19    2
    19     7    20    2
    20     5    21    2
    21    22    25   ar
    22    17    23   ar
    23    14    24    1
    24    18    25    1
    25    17    26   ar
    26     2    27    1
    27    10    28    1
    28    10    29    1
    29     8    30   ar
    30     6    31   ar
    31    24    32    1
    32    22    33   ar
    33    25    34   ar
    34    32    35    1
    35    32    36    1
    36    28    37    1
    37    29    38    1
    38    31    39   ar
    39    39    40   ar
    40    41    42   ar
    41    34    42   ar
    42    37    43    1
    43    38    44    1
    44     2     8   ar
    45    30    40   ar
    46    33    41   ar
    47    43    44    1
    48     4    45    1
    49     9    46    1
    50    11    47    1
    51    12    48    1
    52    13    49    1
    53    14    50    1
    54    15    51    1
    55    16    52    1
    56    16    53    1
    57    18    54    1
    58    18    55    1
    59    24    56    1
    60    24    57    1
    61    27    58    1
    62    27    59    1
    63    27    60    1
    64    28    61    1
    65    28    62    1
    66    29    63    1
    67    29    64    1
    68    30    65    1
    69    31    66    1
    70    32    67    1
    71    33    68    1
    72    34    69    1
    73    35    70    1
    74    35    71    1
    75    35    72    1
    76    36    73    1
    77    36    74    1
    78    36    75    1
    79    37    76    1
    80    37    77    1
    81    38    78    1
    82    38    79    1
    83    39    80    1
    84    40    81    1
    85    41    82    1
    86    42    83    1
    87    43    84    1
    88    43    85    1
    89    44    86    1
    90    44    87    1
@<TRIPOS>MOLECULE
../1EDN/3STEPMIN_17-21.pdb
 47 48 0 0 0
SMALL
GASTEIGER

@<TRIPOS>ATOM
      1  N         -5.4290    0.8830   -1.1740 N.3    17  LEU17      -0.1231
      2  CA        -6.8230    0.6710   -0.7980 C.3    17  LEU17       0.1693
      3  CB        -6.9230   -0.4370    0.2770 C.3    17  LEU17       0.0284
      4  CG        -6.4950   -1.8450   -0.1910 C.3    17  LEU17       0.0019
      5  CD1       -6.5150   -2.8060    0.9980 C.3    17  LEU17       0.0001
      6  CD2       -7.4310   -2.4140   -1.2600 C.3    17  LEU17       0.0001
      7  C         -7.3990    2.0370   -0.3760 C.2    17  LEU17       0.2592
      8  O         -7.4670    2.9330   -1.2040 O.2    17  LEU17      -0.2718
      9  N         -7.7380    2.2560    0.8970 N.am   18  ASP18      -0.1960
     10  CA        -8.5130    3.4280    1.3730 C.3    18  ASP18       0.1840
     11  CB        -9.0510    3.1310    2.7840 C.3    18  ASP18       0.1450
     12  CG       -10.5470    3.4340    2.8500 C.2    18  ASP18       0.3671
     13  OD1      -11.3300    2.4930    2.5610 O.co2  18  ASP18      -0.2456
     14  OD2      -10.9050    4.5930    3.1470 O.co2  18  ASP18      -0.2456
     15  C         -7.8270    4.8120    1.2910 C.2    18  ASP18       0.2622
     16  O         -8.3890    5.8210    1.7350 O.2    18  ASP18      -0.2715
     17  N         -6.6250    4.8510    0.7010 N.am   19  ILE19      -0.1963
     18  CA        -5.9180    6.0210    0.1680 C.3    19  ILE19       0.1727
     19  CB        -4.3960    5.7260    0.0740 C.3    19  ILE19       0.0290
     20  CG2       -3.6150    6.9530   -0.4300 C.3    19  ILE19       0.0023
     21  CG1       -3.7730    5.2100    1.3920 C.3    19  ILE19       0.0022
     22  CD1       -3.8620    6.1700    2.5820 C.3    19  ILE19       0.0001
     23  C         -6.4970    6.4050   -1.2110 C.2    19  ILE19       0.2616
     24  O         -7.0070    7.5130   -1.3720 O.2    19  ILE19      -0.2715
     25  N         -6.3950    5.4980   -2.1940 N.am   20  ILE20      -0.1963
     26  CA        -6.9990    5.5490   -3.5400 C.3    20  ILE20       0.1727
     27  CB        -6.0900    6.2460   -4.5940 C.3    20  ILE20       0.0290
     28  CG2       -6.7980    6.2490   -5.9680 C.3    20  ILE20       0.0023
     29  CG1       -5.7140    7.6970   -4.2070 C.3    20  ILE20       0.0022
     30  CD1       -4.7810    8.4150   -5.1910 C.3    20  ILE20       0.0001
     31  C         -7.3180    4.1070   -3.9880 C.2    20  ILE20       0.2617
     32  O         -6.4020    3.3070   -4.2100 O.2    20  ILE20      -0.2715
     33  N         -8.6100    3.8210   -4.1620 N.am   21  TRP21      -0.1938
     34  CA        -9.2240    2.5950   -4.7020 C.3    21  TRP21       0.2021
     35  CB        -9.7020    1.6830   -3.5450 C.3    21  TRP21       0.0612
     36  CG       -10.4970    2.2370   -2.3850 C.ar   21  TRP21       0.0007
     37  CD1      -10.6860    1.5470   -1.2340 C.ar   21  TRP21       0.0946
     38  NE1      -11.3350    2.3340   -0.3040 N.ar   21  TRP21      -0.2442
     39  CE2      -11.5720    3.5950   -0.7990 C.ar   21  TRP21       0.0810
     40  CZ2      -12.0950    4.7480   -0.2000 C.ar   21  TRP21       0.0191
     41  CH2      -12.2340    5.9130   -0.9670 C.ar   21  TRP21       0.0015
     42  CZ3      -11.8800    5.8920   -2.3260 C.ar   21  TRP21       0.0001
     43  CE3      -11.3480    4.7280   -2.9100 C.ar   21  TRP21       0.0012
     44  CD2      -11.1270    3.5500   -2.1550 C.ar   21  TRP21       0.0152
     45  C        -10.3230    2.8760   -5.7330 C.2    21  TRP21       0.3845
     46  O        -11.0800    1.9620   -6.0950 O.co2  21  TRP21      -0.2437
     47  OXT      -10.4270    4.0430   -6.2080 O.co2  21  TRP21      -0.2437
@<TRIPOS>BOND
     1    47    45   ar
     2    46    45   ar
     3    28    27    1
     4    45    34    1
     5    30    29    1
     6    34    33    1
     7    34    35    1
     8    27    29    1
     9    27    26    1
    10    32    31    2
    11    33    31   am
    12    31    26    1
    13    35    36    1
    14    26    25    1
    15    43    42   ar
    16    43    44   ar
    17    36    44   ar
    18    36    37   ar
    19    42    41   ar
    20    25    23   am
    21    44    39   ar
    22    24    23    2
    23     6     4    1
    24    37    38   ar
    25    23    18    1
    26     8     7    2
    27     1     2    1
    28    41    40   ar
    29    39    38   ar
    30    39    40   ar
    31     2     7    1
    32     2     3    1
    33    20    19    1
    34     7     9   am
    35     4     3    1
    36     4     5    1
    37    19    18    1
    38    19    21    1
    39    18    17    1
    40    17    15   am
    41     9    10    1
    42    15    10    1
    43    15    16    2
    44    10    11    1
    45    21    22    1
    46    13    12   ar
    47    11    12    1
    48    12    14   ar
