@<TRIPOS>MOLECULE
../1EDN/PCA1_17-21_NOBACKBONE.pdb
 26 23 0 0 0
SMALL
GASTEIGER

@<TRIPOS>ATOM
      1  CB        -6.0770   -2.3450   -1.7480 C.3    17  LEU17       0.0000
      2  CG        -7.4170   -3.0590   -2.1890 C.3    17  LEU17       0.0000
      3  CD1       -7.4920   -3.1930   -3.7220 C.3    17  LEU17       0.0000
      4  CD2       -7.5340   -4.4610   -1.6100 C.3    17  LEU17       0.0000
      5  CB        -8.8290    0.4520    1.4200 C.3    18  ASP18       0.1258
      6  CG        -9.9140    1.2760    2.0640 C.2    18  ASP18       0.3654
      7  OD1      -10.8560    1.7240    1.3430 O.co2  18  ASP18      -0.2456
      8  OD2       -9.7710    1.5960    3.2830 O.co2  18  ASP18      -0.2456
      9  CB        -5.0730    3.3500    3.1520 C.3    19  ILE19       0.0000
     10  CG2       -4.5850    4.5470    3.9530 C.3    19  ILE19       0.0000
     11  CG1       -5.6210    2.1420    3.9730 C.3    19  ILE19       0.0000
     12  CD1       -6.7460    2.5740    4.8760 C.3    19  ILE19       0.0000
     13  CB        -2.8480    5.4620   -0.8180 C.3    20  ILE20       0.0000
     14  CG2       -2.5210    6.1670    0.5290 C.3    20  ILE20       0.0000
     15  CG1       -1.9270    4.2500   -0.9510 C.3    20  ILE20       0.0000
     16  CD1       -0.4520    4.4090   -1.0350 C.3    20  ILE20       0.0000
     17  CB        -7.1930    6.0870   -4.6010 C.3    21  TRP21       0.0066
     18  CG        -8.1480    4.9210   -4.3560 C.3    21  TRP21       0.0452
     19  CD1       -8.4270    4.3170   -3.1580 C.3    21  TRP21       0.1165
     20  NE1       -9.4680    3.4340   -3.3480 N.pl3  21  TRP21      -0.2376
     21  CE2      -10.0400    3.5420   -4.5600 C.ar   21  TRP21       0.0614
     22  CZ2      -11.2420    2.9770   -5.0990 C.ar   21  TRP21       0.0158
     23  CH2      -11.3060    3.0240   -6.5170 C.ar   21  TRP21       0.0013
     24  CZ3      -10.3640    3.7270   -7.2650 C.ar   21  TRP21      -0.0002
     25  CE3       -9.2810    4.3830   -6.7050 C.ar   21  TRP21      -0.0030
     26  CD2       -9.0950    4.3440   -5.3390 C.ar   21  TRP21      -0.0059
@<TRIPOS>BOND
     1    24    25   ar
     2    24    23   ar
     3    25    26   ar
     4    23    22   ar
     5    26    21   ar
     6    26    18    1
     7    22    21   ar
     8    17    18    1
     9    21    20    1
    10    18    19    1
    11     3     2    1
    12    20    19    1
    13     2     1    1
    14     2     4    1
    15    16    15    1
    16    15    13    1
    17    13    14    1
    18     7     6   ar
    19     5     6    1
    20     6     8   ar
    21     9    10    1
    22     9    11    1
    23    11    12    1
@<TRIPOS>MOLECULE
11672244
 106 111 0 0 0
SMALL
GASTEIGER

@<TRIPOS>ATOM
      1 O          -8.7906    2.1269   -1.1616 O.3     1  LIG11      -0.4607
      2 O          -6.8957   -3.0808   -5.8172 O.2     1  LIG11      -0.2968
      3 O          -8.1121   -0.4449    4.8046 O.co2   1  LIG11      -0.5492
      4 O         -10.1258    0.5612    5.0911 O.co2   1  LIG11      -0.5492
      5 O          -9.8627    3.9098   -0.1687 O.2     1  LIG11      -0.2456
      6 O         -13.2723    2.6561   -6.8614 O.3     1  LIG11      -0.5067
      7 O          -8.4159    5.6435   -3.8807 O.2     1  LIG11      -0.2705
      8 O          -3.7097    6.3794   -5.5235 O.co2   1  LIG11      -0.5452
      9 O          -4.2196    8.4903   -4.8099 O.co2   1  LIG11      -0.5452
     10 N          -8.0737    4.3137   -5.7712 N.am    1  LIG11      -0.2815
     11 C          -8.6159   -0.7782    0.1259 C.3     1  LIG11      -0.0160
     12 C          -7.2466   -1.1773   -0.5381 C.3     1  LIG11      -0.0256
     13 C          -8.4013    0.6517    0.9100 C.3     1  LIG11       0.0318
     14 C          -7.2677   -2.3217   -1.6548 C.3     1  LIG11      -0.0243
     15 C          -8.4148   -1.9755   -2.6668 C.3     1  LIG11      -0.0235
     16 C          -9.7450   -0.7100   -0.9366 C.3     1  LIG11      -0.0461
     17 C          -7.1967    0.5320    1.8871 C.2     1  LIG11      -0.0596
     18 C          -7.1295    1.5727    3.0237 C.3     1  LIG11      -0.0080
     19 C          -9.7650   -1.8729   -1.9287 C.3     1  LIG11      -0.0483
     20 C          -9.7130    1.0142    1.6727 C.3     1  LIG11      -0.0392
     21 C          -6.1646   -1.3659    0.5506 C.3     1  LIG11      -0.0306
     22 C          -8.4645    1.7165    3.7906 C.3     1  LIG11       0.0167
     23 C          -8.4684   -2.8132   -3.9891 C.3     1  LIG11       0.0267
     24 C          -5.9301   -2.2489   -2.4473 C.3     1  LIG11      -0.0404
     25 C          -9.5689    2.0731    2.7671 C.3     1  LIG11      -0.0408
     26 C          -9.0584   -1.8769    1.1526 C.3     1  LIG11      -0.0584
     27 C          -6.2248   -0.3797    1.6783 C.2     1  LIG11      -0.0835
     28 C          -7.9842    1.8738   -0.0049 C.3     1  LIG11       0.1025
     29 C          -7.3890   -3.7472   -1.0625 C.3     1  LIG11      -0.0590
     30 C          -5.8970    1.4982    3.9613 C.3     1  LIG11      -0.0405
     31 C          -8.3690    2.8804    4.8107 C.3     1  LIG11      -0.0412
     32 C          -5.8803   -3.1416   -3.6781 C.3     1  LIG11       0.0069
     33 C          -5.8219    2.6506    4.9904 C.3     1  LIG11      -0.0343
     34 C          -7.0624   -2.9575   -4.5988 C.2     1  LIG11       0.1392
     35 C          -7.1603    2.7751    5.7420 C.3     1  LIG11      -0.0470
     36 C          -9.0701   -4.2189   -3.8414 C.3     1  LIG11      -0.0528
     37 C          -9.3333   -2.0536   -5.0316 C.3     1  LIG11      -0.0528
     38 C          -8.9457    0.4884    4.6342 C.2     1  LIG11       0.0485
     39 C          -4.7044    2.3414    6.0055 C.3     1  LIG11      -0.0598
     40 C          -5.4607    3.9795    4.2937 C.3     1  LIG11      -0.0598
     41 C          -9.5877    3.2216   -1.1390 C.2     1  LIG11       0.3320
     42 C         -10.1539    3.4965   -2.4762 C.2     1  LIG11       0.0231
     43 C          -9.6699    2.9650   -3.6092 C.2     1  LIG11      -0.0460
     44 C         -10.1971    3.3008   -4.9402 C.ar    1  LIG11      -0.0001
     45 C          -9.3893    3.8386   -5.9637 C.ar    1  LIG11       0.0411
     46 C         -11.5128    2.9068   -5.2432 C.ar    1  LIG11      -0.0113
     47 C          -9.8826    3.8986   -7.2761 C.ar    1  LIG11      -0.0364
     48 C         -11.9986    3.0274   -6.5428 C.ar    1  LIG11       0.1175
     49 C         -11.1903    3.5074   -7.5624 C.ar    1  LIG11      -0.0184
     50 C          -7.6967    5.1727   -4.7488 C.2     1  LIG11       0.2411
     51 C          -6.2834    5.5858   -4.9348 C.2     1  LIG11       0.0021
     52 C          -5.8854    6.8460   -4.7130 C.2     1  LIG11      -0.0344
     53 C          -4.4585    7.2709   -5.0328 C.2     1  LIG11       0.0647
     54 H         -13.7221    2.3914   -6.0419 H       1  LIG11       0.2921
     55 H          -7.4857    4.3784   -6.5931 H       1  LIG11       0.1551
     56 H          -6.9376   -0.2866   -1.1023 H       1  LIG11       0.0315
     57 H          -8.1862   -0.9518   -3.0090 H       1  LIG11       0.0315
     58 H          -9.6636    0.1856   -1.5462 H       1  LIG11       0.0271
     59 H         -10.7263   -0.6448   -0.4503 H       1  LIG11       0.0271
     60 H          -6.9832    2.5215    2.4898 H       1  LIG11       0.0355
     61 H         -10.0294   -2.8048   -1.4217 H       1  LIG11       0.0269
     62 H         -10.5796   -1.6784   -2.6331 H       1  LIG11       0.0269
     63 H         -10.1381    0.1371    2.1646 H       1  LIG11       0.0275
     64 H         -10.4770    1.3471    0.9602 H       1  LIG11       0.0275
     65 H          -6.2229   -2.3565    1.0083 H       1  LIG11       0.0310
     66 H          -5.1721   -1.2867    0.0929 H       1  LIG11       0.0310
     67 H          -5.0872   -2.5159   -1.7990 H       1  LIG11       0.0275
     68 H          -5.7555   -1.2144   -2.7726 H       1  LIG11       0.0275
     69 H         -10.5413    2.2004    3.2599 H       1  LIG11       0.0275
     70 H          -9.3506    3.0446    2.3083 H       1  LIG11       0.0275
     71 H          -8.9902   -2.8836    0.7496 H       1  LIG11       0.0235
     72 H         -10.1077   -1.7637    1.4451 H       1  LIG11       0.0235
     73 H          -8.4680   -1.8686    2.0728 H       1  LIG11       0.0235
     74 H          -5.3985   -0.4595    2.3789 H       1  LIG11       0.0572
     75 H          -7.8945    2.7945    0.5821 H       1  LIG11       0.0706
     76 H          -6.9725    1.7138   -0.3972 H       1  LIG11       0.0706
     77 H          -8.4114   -4.0219   -0.8033 H       1  LIG11       0.0235
     78 H          -6.7704   -3.8881   -0.1746 H       1  LIG11       0.0235
     79 H          -7.0482   -4.5206   -1.7525 H       1  LIG11       0.0235
     80 H          -4.9787    1.5180    3.3585 H       1  LIG11       0.0276
     81 H          -5.8867    0.5390    4.4918 H       1  LIG11       0.0276
     82 H          -9.2762    2.9444    5.4253 H       1  LIG11       0.0274
     83 H          -8.3183    3.8366    4.2740 H       1  LIG11       0.0274
     84 H          -5.8155   -4.2009   -3.4142 H       1  LIG11       0.0342
     85 H          -4.9711   -2.9018   -4.2429 H       1  LIG11       0.0342
     86 H          -7.2961    1.9089    6.4022 H       1  LIG11       0.0271
     87 H          -7.1411    3.6548    6.3982 H       1  LIG11       0.0271
     88 H          -8.4469   -4.8892   -3.2488 H       1  LIG11       0.0239
     89 H          -9.1712   -4.7010   -4.8221 H       1  LIG11       0.0239
     90 H         -10.0680   -4.1906   -3.3929 H       1  LIG11       0.0239
     91 H          -8.9477   -1.0419   -5.2037 H       1  LIG11       0.0239
     92 H         -10.3791   -1.9718   -4.7219 H       1  LIG11       0.0239
     93 H          -9.3363   -2.5634   -6.0026 H       1  LIG11       0.0239
     94 H          -4.9023    1.4077    6.5436 H       1  LIG11       0.0235
     95 H          -4.6141    3.1410    6.7497 H       1  LIG11       0.0235
     96 H          -3.7342    2.2382    5.5063 H       1  LIG11       0.0235
     97 H          -6.2081    4.2891    3.5580 H       1  LIG11       0.0235
     98 H          -4.5020    3.8984    3.7684 H       1  LIG11       0.0235
     99 H          -5.3687    4.7921    5.0233 H       1  LIG11       0.0235
    100 H         -10.9366    4.2458   -2.4864 H       1  LIG11       0.0689
    101 H          -8.8203    2.2874   -3.6027 H       1  LIG11       0.0626
    102 H         -12.1343    2.4760   -4.4636 H       1  LIG11       0.0660
    103 H          -9.2677    4.2974   -8.0790 H       1  LIG11       0.0637
    104 H         -11.5760    3.5884   -8.5739 H       1  LIG11       0.0655
    105 H          -5.5892    4.8426   -5.3132 H       1  LIG11       0.0670
    106 H          -6.5724    7.6008   -4.3455 H       1  LIG11       0.0637
@<TRIPOS>BOND
     1     1    41    1
     2     1    28    1
     3     2    34    2
     4     3    38   ar
     5     4    38   ar
     6     5    41    2
     7     6    48    1
     8     7    50    2
     9     8    53   ar
    10     9    53   ar
    11    10    45    1
    12    10    50   am
    13    11    16    1
    14    11    12    1
    15    11    26    1
    16    11    13    1
    17    12    14    1
    18    13    20    1
    19    13    17    1
    20    13    28    1
    21    14    15    1
    22    14    24    1
    23    14    29    1
    24    15    19    1
    25    15    23    1
    26    16    19    1
    27    17    18    1
    28    17    27    2
    29    18    30    1
    30    18    22    1
    31    20    25    1
    32    21    27    1
    33    21    12    1
    34    22    31    1
    35    22    25    1
    36    22    38    1
    37    23    34    1
    38    23    37    1
    39    23    36    1
    40    24    32    1
    41    30    33    1
    42    31    35    1
    43    32    34    1
    44    33    35    1
    45    33    40    1
    46    33    39    1
    47    41    42    1
    48    42    43    2
    49    43    44    1
    50    44    46   ar
    51    44    45   ar
    52    45    47   ar
    53    46    48   ar
    54    47    49   ar
    55    48    49   ar
    56    50    51    1
    57    51    52    2
    58    52    53    1
    59     6    54    1
    60    10    55    1
    61    12    56    1
    62    15    57    1
    63    16    58    1
    64    16    59    1
    65    18    60    1
    66    19    61    1
    67    19    62    1
    68    20    63    1
    69    20    64    1
    70    21    65    1
    71    21    66    1
    72    24    67    1
    73    24    68    1
    74    25    69    1
    75    25    70    1
    76    26    71    1
    77    26    72    1
    78    26    73    1
    79    27    74    1
    80    28    75    1
    81    28    76    1
    82    29    77    1
    83    29    78    1
    84    29    79    1
    85    30    80    1
    86    30    81    1
    87    31    82    1
    88    31    83    1
    89    32    84    1
    90    32    85    1
    91    35    86    1
    92    35    87    1
    93    36    88    1
    94    36    89    1
    95    36    90    1
    96    37    91    1
    97    37    92    1
    98    37    93    1
    99    39    94    1
   100    39    95    1
   101    39    96    1
   102    40    97    1
   103    40    98    1
   104    40    99    1
   105    42   100    1
   106    43   101    1
   107    46   102    1
   108    47   103    1
   109    49   104    1
   110    51   105    1
   111    52   106    1
@<TRIPOS>MOLECULE
../1EDN/PCA1_17-21.pdb
 47 48 0 0 0
SMALL
GASTEIGER

@<TRIPOS>ATOM
      1  N         -4.6470   -0.3680   -1.6750 N.3    17  LEU17      -0.1231
      2  CA        -5.8920   -0.8550   -2.2480 C.3    17  LEU17       0.1693
      3  CB        -6.0770   -2.3450   -1.7480 C.3    17  LEU17       0.0284
      4  CG        -7.4170   -3.0590   -2.1890 C.3    17  LEU17       0.0019
      5  CD1       -7.4920   -3.1930   -3.7220 C.3    17  LEU17       0.0001
      6  CD2       -7.5340   -4.4610   -1.6100 C.3    17  LEU17       0.0001
      7  C         -7.0080    0.1010   -1.8270 C.2    17  LEU17       0.2592
      8  O         -7.6220    0.6590   -2.7680 O.2    17  LEU17      -0.2718
      9  N         -7.2890    0.1920   -0.5460 N.am   18  ASP18      -0.1960
     10  CA        -8.2730    1.1070    0.1120 C.3    18  ASP18       0.1840
     11  CB        -8.8290    0.4520    1.4200 C.3    18  ASP18       0.1450
     12  CG        -9.9140    1.2760    2.0640 C.2    18  ASP18       0.3671
     13  OD1      -10.8560    1.7240    1.3430 O.co2  18  ASP18      -0.2456
     14  OD2       -9.7710    1.5960    3.2830 O.co2  18  ASP18      -0.2456
     15  C         -7.6270    2.4530    0.4740 C.2    18  ASP18       0.2622
     16  O         -8.0770    3.4620   -0.0480 O.2    18  ASP18      -0.2715
     17  N         -6.6010    2.4770    1.3340 N.am   19  ILE19      -0.1963
     18  CA        -6.1660    3.6270    2.0790 C.3    19  ILE19       0.1727
     19  CB        -5.0730    3.3500    3.1520 C.3    19  ILE19       0.0290
     20  CG2       -4.5850    4.5470    3.9530 C.3    19  ILE19       0.0023
     21  CG1       -5.6210    2.1420    3.9730 C.3    19  ILE19       0.0022
     22  CD1       -6.7460    2.5740    4.8760 C.3    19  ILE19       0.0001
     23  C         -5.6740    4.7260    1.1170 C.2    19  ILE19       0.2616
     24  O         -5.9640    5.8590    1.4260 O.2    19  ILE19      -0.2715
     25  N         -4.8940    4.3400    0.1060 N.am   20  ILE20      -0.1963
     26  CA        -4.3700    5.1770   -0.9560 C.3    20  ILE20       0.1727
     27  CB        -2.8480    5.4620   -0.8180 C.3    20  ILE20       0.0290
     28  CG2       -2.5210    6.1670    0.5290 C.3    20  ILE20       0.0023
     29  CG1       -1.9270    4.2500   -0.9510 C.3    20  ILE20       0.0022
     30  CD1       -0.4520    4.4090   -1.0350 C.3    20  ILE20       0.0001
     31  C         -4.8260    4.7960   -2.3980 C.2    20  ILE20       0.2617
     32  O         -4.8210    3.6210   -2.7490 O.2    20  ILE20      -0.2715
     33  N         -5.1950    5.7710   -3.1960 N.am   21  TRP21      -0.1941
     34  CA        -5.6960    5.8160   -4.5740 C.3    21  TRP21       0.1982
     35  CB        -7.1930    6.0870   -4.6010 C.3    21  TRP21       0.0394
     36  CG        -8.1480    4.9210   -4.3560 C.3    21  TRP21       0.0475
     37  CD1       -8.4270    4.3170   -3.1580 C.3    21  TRP21       0.1166
     38  NE1       -9.4680    3.4340   -3.3480 N.pl3  21  TRP21      -0.2376
     39  CE2      -10.0400    3.5420   -4.5600 C.ar   21  TRP21       0.0614
     40  CZ2      -11.2420    2.9770   -5.0990 C.ar   21  TRP21       0.0158
     41  CH2      -11.3060    3.0240   -6.5170 C.ar   21  TRP21       0.0013
     42  CZ3      -10.3640    3.7270   -7.2650 C.ar   21  TRP21      -0.0002
     43  CE3       -9.2810    4.3830   -6.7050 C.ar   21  TRP21      -0.0030
     44  CD2       -9.0950    4.3440   -5.3390 C.ar   21  TRP21      -0.0059
     45  C         -4.8510    6.8160   -5.3910 C.2    21  TRP21       0.3842
     46  O         -5.0400    8.0490   -5.1500 O.co2  21  TRP21      -0.2437
     47  OXT       -3.9720    6.3760   -6.1010 O.co2  21  TRP21      -0.2437
@<TRIPOS>BOND
     1    42    43   ar
     2    42    41   ar
     3    43    44   ar
     4    41    40   ar
     5    47    45   ar
     6    45    46   ar
     7    45    34    1
     8    44    39   ar
     9    44    36    1
    10    40    39   ar
    11    35    34    1
    12    35    36    1
    13    34    33    1
    14    39    38    1
    15    36    37    1
    16     5     4    1
    17    38    37    1
    18    33    31   am
    19     8     7    2
    20    32    31    2
    21    31    26    1
    22     2     7    1
    23     2     3    1
    24     2     1    1
    25     4     3    1
    26     4     6    1
    27     7     9   am
    28    30    29    1
    29    26    27    1
    30    26    25    1
    31    29    27    1
    32    27    28    1
    33     9    10    1
    34    16    15    2
    35    25    23   am
    36    10    15    1
    37    10    11    1
    38    15    17   am
    39    23    24    2
    40    23    18    1
    41    17    18    1
    42    13    12   ar
    43    11    12    1
    44    12    14   ar
    45    18    19    1
    46    19    20    1
    47    19    21    1
    48    21    22    1
