@<TRIPOS>MOLECULE
../1EDN/PCA1_17-21_NOBACKBONE.pdb
 26 23 0 0 0
SMALL
GASTEIGER

@<TRIPOS>ATOM
      1  CB        -6.0770   -2.3450   -1.7480 C.3    17  LEU17       0.0000
      2  CG        -7.4170   -3.0590   -2.1890 C.3    17  LEU17       0.0000
      3  CD1       -7.4920   -3.1930   -3.7220 C.3    17  LEU17       0.0000
      4  CD2       -7.5340   -4.4610   -1.6100 C.3    17  LEU17       0.0000
      5  CB        -8.8290    0.4520    1.4200 C.3    18  ASP18       0.1258
      6  CG        -9.9140    1.2760    2.0640 C.2    18  ASP18       0.3654
      7  OD1      -10.8560    1.7240    1.3430 O.co2  18  ASP18      -0.2456
      8  OD2       -9.7710    1.5960    3.2830 O.co2  18  ASP18      -0.2456
      9  CB        -5.0730    3.3500    3.1520 C.3    19  ILE19       0.0000
     10  CG2       -4.5850    4.5470    3.9530 C.3    19  ILE19       0.0000
     11  CG1       -5.6210    2.1420    3.9730 C.3    19  ILE19       0.0000
     12  CD1       -6.7460    2.5740    4.8760 C.3    19  ILE19       0.0000
     13  CB        -2.8480    5.4620   -0.8180 C.3    20  ILE20       0.0000
     14  CG2       -2.5210    6.1670    0.5290 C.3    20  ILE20       0.0000
     15  CG1       -1.9270    4.2500   -0.9510 C.3    20  ILE20       0.0000
     16  CD1       -0.4520    4.4090   -1.0350 C.3    20  ILE20       0.0000
     17  CB        -7.1930    6.0870   -4.6010 C.3    21  TRP21       0.0066
     18  CG        -8.1480    4.9210   -4.3560 C.3    21  TRP21       0.0452
     19  CD1       -8.4270    4.3170   -3.1580 C.3    21  TRP21       0.1165
     20  NE1       -9.4680    3.4340   -3.3480 N.pl3  21  TRP21      -0.2376
     21  CE2      -10.0400    3.5420   -4.5600 C.ar   21  TRP21       0.0614
     22  CZ2      -11.2420    2.9770   -5.0990 C.ar   21  TRP21       0.0158
     23  CH2      -11.3060    3.0240   -6.5170 C.ar   21  TRP21       0.0013
     24  CZ3      -10.3640    3.7270   -7.2650 C.ar   21  TRP21      -0.0002
     25  CE3       -9.2810    4.3830   -6.7050 C.ar   21  TRP21      -0.0030
     26  CD2       -9.0950    4.3440   -5.3390 C.ar   21  TRP21      -0.0059
@<TRIPOS>BOND
     1    24    25   ar
     2    24    23   ar
     3    25    26   ar
     4    23    22   ar
     5    26    21   ar
     6    26    18    1
     7    22    21   ar
     8    17    18    1
     9    21    20    1
    10    18    19    1
    11     3     2    1
    12    20    19    1
    13     2     1    1
    14     2     4    1
    15    16    15    1
    16    15    13    1
    17    13    14    1
    18     7     6   ar
    19     5     6    1
    20     6     8   ar
    21     9    10    1
    22     9    11    1
    23    11    12    1
@<TRIPOS>MOLECULE
9911482
 51 53 0 0 0
SMALL
GASTEIGER

@<TRIPOS>ATOM
      1 S          -6.2715    2.4846    0.3775 S.O2    1  LIG11       0.0758
      2 S         -10.5099    2.1163    0.0172 S.2     1  LIG11      -0.0902
      3 O          -3.9515    4.8077   -1.2044 O.2     1  LIG11      -0.3377
      4 O          -5.8235    2.3592    1.7466 O.2     1  LIG11      -0.1499
      5 O          -5.8717    1.5347   -0.6377 O.2     1  LIG11      -0.1499
      6 O          -7.5258    3.2242   -2.2657 O.2     1  LIG11      -0.2692
      7 O          -8.5591    5.8463   -2.9671 O.2     1  LIG11      -0.2923
      8 N          -9.7773    2.9639   -2.7034 N.am    1  LIG11      -0.2802
      9 N          -6.0344    4.0615   -0.1827 N.pl3   1  LIG11      -0.1831
     10 N          -2.6970    5.2483   -0.8327 N.ar    1  LIG11      -0.0810
     11 C          -9.8682    3.3523   -4.0637 C.ar    1  LIG11       0.0471
     12 C          -7.9964    2.2447    0.5007 C.ar    1  LIG11       0.1277
     13 C         -10.8767    2.7428   -4.8524 C.ar    1  LIG11      -0.0283
     14 C          -9.0321    4.3099   -4.6775 C.ar    1  LIG11       0.0388
     15 C          -8.9092    2.4719   -0.5191 C.ar    1  LIG11       0.1007
     16 C         -10.1371    3.9931   -6.8261 C.ar    1  LIG11      -0.0494
     17 C         -10.9968    3.0784   -6.2181 C.ar    1  LIG11      -0.0541
     18 C          -9.1628    4.6140   -6.0454 C.ar    1  LIG11      -0.0466
     19 C          -8.6583    2.9399   -1.8858 C.2     1  LIG11       0.2568
     20 C          -4.6856    4.5088   -0.0978 C.ar    1  LIG11       0.2399
     21 C          -8.6186    1.7769    1.7035 C.ar    1  LIG11      -0.0273
     22 C          -3.9531    4.8249    1.0291 C.ar    1  LIG11       0.0350
     23 C         -11.8778    1.7379   -4.3358 C.3     1  LIG11      -0.0379
     24 C          -8.1235    5.2011   -3.9168 C.2     1  LIG11       0.1619
     25 C          -2.7007    5.2551    0.5042 C.ar    1  LIG11       0.0854
     26 C          -9.9821    1.6668    1.5739 C.ar    1  LIG11      -0.0217
     27 C         -10.2821    4.3473   -8.2764 C.3     1  LIG11      -0.0397
     28 C          -4.3376    4.7765    2.4593 C.3     1  LIG11      -0.0330
     29 C          -1.4986    5.6953    1.2518 C.3     1  LIG11      -0.0188
     30 C          -6.6990    5.3237   -4.3941 C.3     1  LIG11      -0.0013
     31 H         -10.5952    2.5313   -2.2976 H       1  LIG11       0.1552
     32 H          -6.3395    4.0722   -1.1686 H       1  LIG11       0.1768
     33 H         -11.7799    2.6090   -6.8144 H       1  LIG11       0.0623
     34 H          -8.5338    5.3788   -6.4978 H       1  LIG11       0.0628
     35 H          -8.0869    1.5378    2.6185 H       1  LIG11       0.0643
     36 H         -11.5804    1.2614   -3.4000 H       1  LIG11       0.0278
     37 H         -12.8475    2.2247   -4.1896 H       1  LIG11       0.0278
     38 H         -11.9994    0.9233   -5.0593 H       1  LIG11       0.0278
     39 H         -10.6926    1.3431    2.3232 H       1  LIG11       0.0694
     40 H         -11.0505    3.7383   -8.7642 H       1  LIG11       0.0278
     41 H         -10.5680    5.3988   -8.3807 H       1  LIG11       0.0278
     42 H          -9.3379    4.1760   -8.8034 H       1  LIG11       0.0278
     43 H          -5.4225    4.8306    2.5895 H       1  LIG11       0.0280
     44 H          -3.9683    3.8566    2.9236 H       1  LIG11       0.0280
     45 H          -3.9066    5.6215    3.0065 H       1  LIG11       0.0280
     46 H          -0.6829    5.9780    0.5784 H       1  LIG11       0.0294
     47 H          -1.7329    6.5613    1.8791 H       1  LIG11       0.0294
     48 H          -1.1381    4.8891    1.8989 H       1  LIG11       0.0294
     49 H          -6.0332    5.3646   -3.5276 H       1  LIG11       0.0309
     50 H          -6.4116    4.4561   -4.9952 H       1  LIG11       0.0309
     51 H          -6.5896    6.2341   -4.9881 H       1  LIG11       0.0309
@<TRIPOS>BOND
     1     1     4    2
     2     1     5    2
     3     1     9    1
     4     1    12    1
     5     2    15   ar
     6     2    26   ar
     7     3    10   ar
     8     3    20   ar
     9     6    19    2
    10     7    24    2
    11     8    11    1
    12     8    19   am
    13     9    20    1
    14    10    25   ar
    15    11    13   ar
    16    11    14   ar
    17    12    15   ar
    18    12    21   ar
    19    13    17   ar
    20    13    23    1
    21    14    18   ar
    22    14    24    1
    23    15    19    1
    24    16    17   ar
    25    16    18   ar
    26    16    27    1
    27    20    22   ar
    28    21    26   ar
    29    22    25   ar
    30    22    28    1
    31    24    30    1
    32    25    29    1
    33     8    31    1
    34     9    32    1
    35    17    33    1
    36    18    34    1
    37    21    35    1
    38    23    36    1
    39    23    37    1
    40    23    38    1
    41    26    39    1
    42    27    40    1
    43    27    41    1
    44    27    42    1
    45    28    43    1
    46    28    44    1
    47    28    45    1
    48    29    46    1
    49    29    47    1
    50    29    48    1
    51    30    49    1
    52    30    50    1
    53    30    51    1
@<TRIPOS>MOLECULE
../1EDN/PCA1_17-21.pdb
 47 48 0 0 0
SMALL
GASTEIGER

@<TRIPOS>ATOM
      1  N         -4.6470   -0.3680   -1.6750 N.3    17  LEU17      -0.1231
      2  CA        -5.8920   -0.8550   -2.2480 C.3    17  LEU17       0.1693
      3  CB        -6.0770   -2.3450   -1.7480 C.3    17  LEU17       0.0284
      4  CG        -7.4170   -3.0590   -2.1890 C.3    17  LEU17       0.0019
      5  CD1       -7.4920   -3.1930   -3.7220 C.3    17  LEU17       0.0001
      6  CD2       -7.5340   -4.4610   -1.6100 C.3    17  LEU17       0.0001
      7  C         -7.0080    0.1010   -1.8270 C.2    17  LEU17       0.2592
      8  O         -7.6220    0.6590   -2.7680 O.2    17  LEU17      -0.2718
      9  N         -7.2890    0.1920   -0.5460 N.am   18  ASP18      -0.1960
     10  CA        -8.2730    1.1070    0.1120 C.3    18  ASP18       0.1840
     11  CB        -8.8290    0.4520    1.4200 C.3    18  ASP18       0.1450
     12  CG        -9.9140    1.2760    2.0640 C.2    18  ASP18       0.3671
     13  OD1      -10.8560    1.7240    1.3430 O.co2  18  ASP18      -0.2456
     14  OD2       -9.7710    1.5960    3.2830 O.co2  18  ASP18      -0.2456
     15  C         -7.6270    2.4530    0.4740 C.2    18  ASP18       0.2622
     16  O         -8.0770    3.4620   -0.0480 O.2    18  ASP18      -0.2715
     17  N         -6.6010    2.4770    1.3340 N.am   19  ILE19      -0.1963
     18  CA        -6.1660    3.6270    2.0790 C.3    19  ILE19       0.1727
     19  CB        -5.0730    3.3500    3.1520 C.3    19  ILE19       0.0290
     20  CG2       -4.5850    4.5470    3.9530 C.3    19  ILE19       0.0023
     21  CG1       -5.6210    2.1420    3.9730 C.3    19  ILE19       0.0022
     22  CD1       -6.7460    2.5740    4.8760 C.3    19  ILE19       0.0001
     23  C         -5.6740    4.7260    1.1170 C.2    19  ILE19       0.2616
     24  O         -5.9640    5.8590    1.4260 O.2    19  ILE19      -0.2715
     25  N         -4.8940    4.3400    0.1060 N.am   20  ILE20      -0.1963
     26  CA        -4.3700    5.1770   -0.9560 C.3    20  ILE20       0.1727
     27  CB        -2.8480    5.4620   -0.8180 C.3    20  ILE20       0.0290
     28  CG2       -2.5210    6.1670    0.5290 C.3    20  ILE20       0.0023
     29  CG1       -1.9270    4.2500   -0.9510 C.3    20  ILE20       0.0022
     30  CD1       -0.4520    4.4090   -1.0350 C.3    20  ILE20       0.0001
     31  C         -4.8260    4.7960   -2.3980 C.2    20  ILE20       0.2617
     32  O         -4.8210    3.6210   -2.7490 O.2    20  ILE20      -0.2715
     33  N         -5.1950    5.7710   -3.1960 N.am   21  TRP21      -0.1941
     34  CA        -5.6960    5.8160   -4.5740 C.3    21  TRP21       0.1982
     35  CB        -7.1930    6.0870   -4.6010 C.3    21  TRP21       0.0394
     36  CG        -8.1480    4.9210   -4.3560 C.3    21  TRP21       0.0475
     37  CD1       -8.4270    4.3170   -3.1580 C.3    21  TRP21       0.1166
     38  NE1       -9.4680    3.4340   -3.3480 N.pl3  21  TRP21      -0.2376
     39  CE2      -10.0400    3.5420   -4.5600 C.ar   21  TRP21       0.0614
     40  CZ2      -11.2420    2.9770   -5.0990 C.ar   21  TRP21       0.0158
     41  CH2      -11.3060    3.0240   -6.5170 C.ar   21  TRP21       0.0013
     42  CZ3      -10.3640    3.7270   -7.2650 C.ar   21  TRP21      -0.0002
     43  CE3       -9.2810    4.3830   -6.7050 C.ar   21  TRP21      -0.0030
     44  CD2       -9.0950    4.3440   -5.3390 C.ar   21  TRP21      -0.0059
     45  C         -4.8510    6.8160   -5.3910 C.2    21  TRP21       0.3842
     46  O         -5.0400    8.0490   -5.1500 O.co2  21  TRP21      -0.2437
     47  OXT       -3.9720    6.3760   -6.1010 O.co2  21  TRP21      -0.2437
@<TRIPOS>BOND
     1    42    43   ar
     2    42    41   ar
     3    43    44   ar
     4    41    40   ar
     5    47    45   ar
     6    45    46   ar
     7    45    34    1
     8    44    39   ar
     9    44    36    1
    10    40    39   ar
    11    35    34    1
    12    35    36    1
    13    34    33    1
    14    39    38    1
    15    36    37    1
    16     5     4    1
    17    38    37    1
    18    33    31   am
    19     8     7    2
    20    32    31    2
    21    31    26    1
    22     2     7    1
    23     2     3    1
    24     2     1    1
    25     4     3    1
    26     4     6    1
    27     7     9   am
    28    30    29    1
    29    26    27    1
    30    26    25    1
    31    29    27    1
    32    27    28    1
    33     9    10    1
    34    16    15    2
    35    25    23   am
    36    10    15    1
    37    10    11    1
    38    15    17   am
    39    23    24    2
    40    23    18    1
    41    17    18    1
    42    13    12   ar
    43    11    12    1
    44    12    14   ar
    45    18    19    1
    46    19    20    1
    47    19    21    1
    48    21    22    1
