@<TRIPOS>MOLECULE
../1EDN/PCA1_17-21_NOBACKBONE.pdb
 26 23 0 0 0
SMALL
GASTEIGER

@<TRIPOS>ATOM
      1  CB        -6.0770   -2.3450   -1.7480 C.3    17  LEU17       0.0000
      2  CG        -7.4170   -3.0590   -2.1890 C.3    17  LEU17       0.0000
      3  CD1       -7.4920   -3.1930   -3.7220 C.3    17  LEU17       0.0000
      4  CD2       -7.5340   -4.4610   -1.6100 C.3    17  LEU17       0.0000
      5  CB        -8.8290    0.4520    1.4200 C.3    18  ASP18       0.1258
      6  CG        -9.9140    1.2760    2.0640 C.2    18  ASP18       0.3654
      7  OD1      -10.8560    1.7240    1.3430 O.co2  18  ASP18      -0.2456
      8  OD2       -9.7710    1.5960    3.2830 O.co2  18  ASP18      -0.2456
      9  CB        -5.0730    3.3500    3.1520 C.3    19  ILE19       0.0000
     10  CG2       -4.5850    4.5470    3.9530 C.3    19  ILE19       0.0000
     11  CG1       -5.6210    2.1420    3.9730 C.3    19  ILE19       0.0000
     12  CD1       -6.7460    2.5740    4.8760 C.3    19  ILE19       0.0000
     13  CB        -2.8480    5.4620   -0.8180 C.3    20  ILE20       0.0000
     14  CG2       -2.5210    6.1670    0.5290 C.3    20  ILE20       0.0000
     15  CG1       -1.9270    4.2500   -0.9510 C.3    20  ILE20       0.0000
     16  CD1       -0.4520    4.4090   -1.0350 C.3    20  ILE20       0.0000
     17  CB        -7.1930    6.0870   -4.6010 C.3    21  TRP21       0.0066
     18  CG        -8.1480    4.9210   -4.3560 C.3    21  TRP21       0.0452
     19  CD1       -8.4270    4.3170   -3.1580 C.3    21  TRP21       0.1165
     20  NE1       -9.4680    3.4340   -3.3480 N.pl3  21  TRP21      -0.2376
     21  CE2      -10.0400    3.5420   -4.5600 C.ar   21  TRP21       0.0614
     22  CZ2      -11.2420    2.9770   -5.0990 C.ar   21  TRP21       0.0158
     23  CH2      -11.3060    3.0240   -6.5170 C.ar   21  TRP21       0.0013
     24  CZ3      -10.3640    3.7270   -7.2650 C.ar   21  TRP21      -0.0002
     25  CE3       -9.2810    4.3830   -6.7050 C.ar   21  TRP21      -0.0030
     26  CD2       -9.0950    4.3440   -5.3390 C.ar   21  TRP21      -0.0059
@<TRIPOS>BOND
     1    24    25   ar
     2    24    23   ar
     3    25    26   ar
     4    23    22   ar
     5    26    21   ar
     6    26    18    1
     7    22    21   ar
     8    17    18    1
     9    21    20    1
    10    18    19    1
    11     3     2    1
    12    20    19    1
    13     2     1    1
    14     2     4    1
    15    16    15    1
    16    15    13    1
    17    13    14    1
    18     7     6   ar
    19     5     6    1
    20     6     8   ar
    21     9    10    1
    22     9    11    1
    23    11    12    1
@<TRIPOS>MOLECULE
HTS1204-03362316-01
 87 90 0 0 0
SMALL
USER_CHARGES

@<TRIPOS>ATOM
      1 C1         -8.7800    4.0221   -4.1283 C.ar    1  UNK11      -0.0199
      2 N1        -11.0002    4.0365   -4.3630 N.ar    1  UNK11      -0.3494
      3 C2         -3.6497    4.9433    2.0002 C.2     1  UNK11       0.3028
      4 C3         -9.9820    4.0830   -3.4485 C.ar    1  UNK11       0.0086
      5 C4         -7.5632    1.7594   -2.3037 C.2     1  UNK11       0.2342
      6 C5         -9.1053    3.9903   -5.5278 C.ar    1  UNK11       0.0031
      7 C6         -5.3263    4.4574   -1.0405 C.2     1  UNK11       0.2340
      8 C7        -10.4976    4.0022   -5.6453 C.ar    1  UNK11       0.0491
      9 N2         -4.0804    4.1100    1.0173 N.am    1  UNK11      -0.2879
     10 N3         -4.0982    4.6046    3.2744 N.am    1  UNK11      -0.2856
     11 N4         -5.8068    3.3861   -1.7678 N.am    1  UNK11      -0.3022
     12 N5         -7.5839    0.9841   -1.1733 N.am    1  UNK11      -0.3054
     13 C8         -7.2048    3.2660   -2.2049 C.3     1  UNK11       0.1034
     14 C9         -3.9197    4.2188   -0.4317 C.3     1  UNK11       0.1011
     15 C10        -6.9701    1.2556    0.1530 C.3     1  UNK11       0.0680
     16 C11        -7.3891    3.9965   -3.5487 C.3     1  UNK11       0.0013
     17 C12        -5.4144    1.1744    0.1896 C.2     1  UNK11       0.0623
     18 C13        -7.4407    0.2462    1.2135 C.3     1  UNK11       0.0133
     19 O1         -2.8898    5.8932    1.8192 O.2     1  UNK11      -0.2526
     20 O2         -5.9898    5.4779   -0.8548 O.2     1  UNK11      -0.2738
     21 O3         -7.8784    1.2107   -3.3644 O.2     1  UNK11      -0.2738
     22 N6         -9.8508    0.6952    1.1101 N.ar    1  UNK11      -0.2598
     23 O4         -4.8458    0.9882   -0.9278 O.co2   1  UNK11      -0.5479
     24 C14        -2.9082    5.2294   -0.9863 C.3     1  UNK11      -0.0236
     25 C15        -8.7359    0.6522    1.8781 C.ar    1  UNK11       0.0434
     26 O5         -4.8716    1.4714    1.2953 O.co2   1  UNK11      -0.5479
     27 C16       -12.4051    4.0066   -4.0282 C.3     1  UNK11       0.0119
     28 C17        -3.3264    5.1044    4.4121 C.3     1  UNK11       0.0161
     29 C18        -5.4115    4.0024    3.5161 C.3     1  UNK11       0.0161
     30 C19       -11.1444    3.9656   -6.8927 C.ar    1  UNK11      -0.0376
     31 C20        -8.3326    3.9409   -6.7087 C.ar    1  UNK11      -0.0523
     32 C21        -1.4272    4.8662   -0.7256 C.3     1  UNK11      -0.0446
     33 C22       -11.0092    1.0416    1.7069 C.ar    1  UNK11       0.0279
     34 C23        -8.7679    0.9227    3.2457 C.ar    1  UNK11      -0.0403
     35 C24        -1.0232    3.5286   -1.3514 C.3     1  UNK11      -0.0626
     36 C25        -0.5222    5.9778   -1.2622 C.3     1  UNK11      -0.0626
     37 C26        -4.0260    5.0672    5.7701 C.3     1  UNK11      -0.0371
     38 C27        -6.4824    5.0393    3.8771 C.3     1  UNK11      -0.0371
     39 C28        -8.9652    3.9065   -7.9564 C.ar    1  UNK11      -0.0611
     40 C29       -10.3532    3.9187   -8.0446 C.ar    1  UNK11      -0.0598
     41 C30       -11.1268    1.3224    3.0566 C.ar    1  UNK11      -0.0436
     42 C31        -9.9821    1.2554    3.8402 C.ar    1  UNK11      -0.0586
     43 C32        -5.2037    6.0353    5.8914 C.3     1  UNK11      -0.0516
     44 C33        -5.9991    6.2885    4.6135 C.3     1  UNK11      -0.0516
     45 H         -10.1876    4.1195   -2.3864 H       1  UNK11       0.0812
     46 H          -4.3120    3.1587    1.3246 H       1  UNK11       0.1510
     47 H          -5.2650    2.5092   -1.7496 H       1  UNK11       0.1495
     48 H          -7.7038    0.0094   -1.4108 H       1  UNK11       0.1494
     49 H          -7.8493    3.7189   -1.4415 H       1  UNK11       0.0598
     50 H          -3.5959    3.2260   -0.7492 H       1  UNK11       0.0595
     51 H          -7.2391    2.2813    0.4369 H       1  UNK11       0.0564
     52 H          -7.0632    5.0397   -3.4421 H       1  UNK11       0.0337
     53 H          -6.7089    3.5451   -4.2837 H       1  UNK11       0.0337
     54 H          -7.5886   -0.7426    0.7621 H       1  UNK11       0.0350
     55 H          -6.6939    0.0923    2.0014 H       1  UNK11       0.0350
     56 H          -3.0553    5.3061   -2.0727 H       1  UNK11       0.0290
     57 H          -3.1253    6.2319   -0.5975 H       1  UNK11       0.0290
     58 H         -12.5261    4.0158   -2.9422 H       1  UNK11       0.0456
     59 H         -12.8837    4.8884   -4.4617 H       1  UNK11       0.0456
     60 H         -12.8399    3.0909   -4.4388 H       1  UNK11       0.0456
     61 H          -2.4299    4.4725    4.4626 H       1  UNK11       0.0465
     62 H          -2.9758    6.1227    4.2061 H       1  UNK11       0.0465
     63 H          -5.7798    3.4688    2.6375 H       1  UNK11       0.0465
     64 H          -5.3106    3.2430    4.2979 H       1  UNK11       0.0465
     65 H         -12.2260    3.9661   -6.9685 H       1  UNK11       0.0638
     66 H          -7.2486    3.9194   -6.6484 H       1  UNK11       0.0624
     67 H          -1.2489    4.7890    0.3517 H       1  UNK11       0.0296
     68 H         -11.8689    1.0861    1.0452 H       1  UNK11       0.0829
     69 H          -7.8618    0.8700    3.8423 H       1  UNK11       0.0635
     70 H          -1.2813    3.4917   -2.4149 H       1  UNK11       0.0232
     71 H           0.0553    3.3649   -1.2574 H       1  UNK11       0.0232
     72 H          -1.5141    2.6889   -0.8496 H       1  UNK11       0.0232
     73 H          -0.6250    6.0843   -2.3475 H       1  UNK11       0.0232
     74 H          -0.7693    6.9388   -0.7996 H       1  UNK11       0.0232
     75 H           0.5286    5.7630   -1.0412 H       1  UNK11       0.0232
     76 H          -4.3589    4.0499    6.0054 H       1  UNK11       0.0280
     77 H          -3.2961    5.3152    6.5509 H       1  UNK11       0.0280
     78 H          -6.9600    5.3767    2.9478 H       1  UNK11       0.0280
     79 H          -7.2706    4.5453    4.4582 H       1  UNK11       0.0280
     80 H          -8.3625    3.8618   -8.8592 H       1  UNK11       0.0618
     81 H         -10.8297    3.8839   -9.0209 H       1  UNK11       0.0618
     82 H         -12.0861    1.5865    3.4844 H       1  UNK11       0.0633
     83 H         -10.0303    1.4622    4.9050 H       1  UNK11       0.0619
     84 H          -5.8762    5.6755    6.6794 H       1  UNK11       0.0266
     85 H          -4.8208    7.0027    6.2412 H       1  UNK11       0.0266
     86 H          -5.3981    6.9014    3.9287 H       1  UNK11       0.0266
     87 H          -6.8707    6.9070    4.8629 H       1  UNK11       0.0266
@<TRIPOS>BOND
     1     2     4   ar
     2     3     9   am
     3     1     4   ar
     4     5    13    1
     5     1     6   ar
     6     7    11   am
     7     6     8   ar
     8     9    14    1
     9     3    10   am
    10    11    13    1
    11     5    12   am
    12    13    16    1
    13     7    14    1
    14    12    15    1
    15     1    16    1
    16    15    17    1
    17    15    18    1
    18     3    19    2
    19     7    20    2
    20     5    21    2
    21    22    25   ar
    22    17    23   ar
    23    14    24    1
    24    18    25    1
    25    17    26   ar
    26     2    27    1
    27    10    28    1
    28    10    29    1
    29     8    30   ar
    30     6    31   ar
    31    24    32    1
    32    22    33   ar
    33    25    34   ar
    34    32    35    1
    35    32    36    1
    36    28    37    1
    37    29    38    1
    38    31    39   ar
    39    39    40   ar
    40    41    42   ar
    41    34    42   ar
    42    37    43    1
    43    38    44    1
    44     2     8   ar
    45    30    40   ar
    46    33    41   ar
    47    43    44    1
    48     4    45    1
    49     9    46    1
    50    11    47    1
    51    12    48    1
    52    13    49    1
    53    14    50    1
    54    15    51    1
    55    16    52    1
    56    16    53    1
    57    18    54    1
    58    18    55    1
    59    24    56    1
    60    24    57    1
    61    27    58    1
    62    27    59    1
    63    27    60    1
    64    28    61    1
    65    28    62    1
    66    29    63    1
    67    29    64    1
    68    30    65    1
    69    31    66    1
    70    32    67    1
    71    33    68    1
    72    34    69    1
    73    35    70    1
    74    35    71    1
    75    35    72    1
    76    36    73    1
    77    36    74    1
    78    36    75    1
    79    37    76    1
    80    37    77    1
    81    38    78    1
    82    38    79    1
    83    39    80    1
    84    40    81    1
    85    41    82    1
    86    42    83    1
    87    43    84    1
    88    43    85    1
    89    44    86    1
    90    44    87    1
@<TRIPOS>MOLECULE
../1EDN/PCA1_17-21.pdb
 47 48 0 0 0
SMALL
GASTEIGER

@<TRIPOS>ATOM
      1  N         -4.6470   -0.3680   -1.6750 N.3    17  LEU17      -0.1231
      2  CA        -5.8920   -0.8550   -2.2480 C.3    17  LEU17       0.1693
      3  CB        -6.0770   -2.3450   -1.7480 C.3    17  LEU17       0.0284
      4  CG        -7.4170   -3.0590   -2.1890 C.3    17  LEU17       0.0019
      5  CD1       -7.4920   -3.1930   -3.7220 C.3    17  LEU17       0.0001
      6  CD2       -7.5340   -4.4610   -1.6100 C.3    17  LEU17       0.0001
      7  C         -7.0080    0.1010   -1.8270 C.2    17  LEU17       0.2592
      8  O         -7.6220    0.6590   -2.7680 O.2    17  LEU17      -0.2718
      9  N         -7.2890    0.1920   -0.5460 N.am   18  ASP18      -0.1960
     10  CA        -8.2730    1.1070    0.1120 C.3    18  ASP18       0.1840
     11  CB        -8.8290    0.4520    1.4200 C.3    18  ASP18       0.1450
     12  CG        -9.9140    1.2760    2.0640 C.2    18  ASP18       0.3671
     13  OD1      -10.8560    1.7240    1.3430 O.co2  18  ASP18      -0.2456
     14  OD2       -9.7710    1.5960    3.2830 O.co2  18  ASP18      -0.2456
     15  C         -7.6270    2.4530    0.4740 C.2    18  ASP18       0.2622
     16  O         -8.0770    3.4620   -0.0480 O.2    18  ASP18      -0.2715
     17  N         -6.6010    2.4770    1.3340 N.am   19  ILE19      -0.1963
     18  CA        -6.1660    3.6270    2.0790 C.3    19  ILE19       0.1727
     19  CB        -5.0730    3.3500    3.1520 C.3    19  ILE19       0.0290
     20  CG2       -4.5850    4.5470    3.9530 C.3    19  ILE19       0.0023
     21  CG1       -5.6210    2.1420    3.9730 C.3    19  ILE19       0.0022
     22  CD1       -6.7460    2.5740    4.8760 C.3    19  ILE19       0.0001
     23  C         -5.6740    4.7260    1.1170 C.2    19  ILE19       0.2616
     24  O         -5.9640    5.8590    1.4260 O.2    19  ILE19      -0.2715
     25  N         -4.8940    4.3400    0.1060 N.am   20  ILE20      -0.1963
     26  CA        -4.3700    5.1770   -0.9560 C.3    20  ILE20       0.1727
     27  CB        -2.8480    5.4620   -0.8180 C.3    20  ILE20       0.0290
     28  CG2       -2.5210    6.1670    0.5290 C.3    20  ILE20       0.0023
     29  CG1       -1.9270    4.2500   -0.9510 C.3    20  ILE20       0.0022
     30  CD1       -0.4520    4.4090   -1.0350 C.3    20  ILE20       0.0001
     31  C         -4.8260    4.7960   -2.3980 C.2    20  ILE20       0.2617
     32  O         -4.8210    3.6210   -2.7490 O.2    20  ILE20      -0.2715
     33  N         -5.1950    5.7710   -3.1960 N.am   21  TRP21      -0.1941
     34  CA        -5.6960    5.8160   -4.5740 C.3    21  TRP21       0.1982
     35  CB        -7.1930    6.0870   -4.6010 C.3    21  TRP21       0.0394
     36  CG        -8.1480    4.9210   -4.3560 C.3    21  TRP21       0.0475
     37  CD1       -8.4270    4.3170   -3.1580 C.3    21  TRP21       0.1166
     38  NE1       -9.4680    3.4340   -3.3480 N.pl3  21  TRP21      -0.2376
     39  CE2      -10.0400    3.5420   -4.5600 C.ar   21  TRP21       0.0614
     40  CZ2      -11.2420    2.9770   -5.0990 C.ar   21  TRP21       0.0158
     41  CH2      -11.3060    3.0240   -6.5170 C.ar   21  TRP21       0.0013
     42  CZ3      -10.3640    3.7270   -7.2650 C.ar   21  TRP21      -0.0002
     43  CE3       -9.2810    4.3830   -6.7050 C.ar   21  TRP21      -0.0030
     44  CD2       -9.0950    4.3440   -5.3390 C.ar   21  TRP21      -0.0059
     45  C         -4.8510    6.8160   -5.3910 C.2    21  TRP21       0.3842
     46  O         -5.0400    8.0490   -5.1500 O.co2  21  TRP21      -0.2437
     47  OXT       -3.9720    6.3760   -6.1010 O.co2  21  TRP21      -0.2437
@<TRIPOS>BOND
     1    42    43   ar
     2    42    41   ar
     3    43    44   ar
     4    41    40   ar
     5    47    45   ar
     6    45    46   ar
     7    45    34    1
     8    44    39   ar
     9    44    36    1
    10    40    39   ar
    11    35    34    1
    12    35    36    1
    13    34    33    1
    14    39    38    1
    15    36    37    1
    16     5     4    1
    17    38    37    1
    18    33    31   am
    19     8     7    2
    20    32    31    2
    21    31    26    1
    22     2     7    1
    23     2     3    1
    24     2     1    1
    25     4     3    1
    26     4     6    1
    27     7     9   am
    28    30    29    1
    29    26    27    1
    30    26    25    1
    31    29    27    1
    32    27    28    1
    33     9    10    1
    34    16    15    2
    35    25    23   am
    36    10    15    1
    37    10    11    1
    38    15    17   am
    39    23    24    2
    40    23    18    1
    41    17    18    1
    42    13    12   ar
    43    11    12    1
    44    12    14   ar
    45    18    19    1
    46    19    20    1
    47    19    21    1
    48    21    22    1
