@<TRIPOS>MOLECULE
../1EDN/PCA2_17-21_NOBACKBONE.pdb
 26 23 0 0 0
SMALL
GASTEIGER

@<TRIPOS>ATOM
      1  CB        -5.9860   -1.2020   -0.4580 C.3    17  LEU17       0.0000
      2  CG        -7.1280   -2.2100   -0.5390 C.3    17  LEU17       0.0000
      3  CD1       -6.7120   -3.3620   -1.4700 C.3    17  LEU17       0.0000
      4  CD2       -7.4980   -2.5610    0.9130 C.3    17  LEU17       0.0000
      5  CB        -9.6810    1.0560   -1.6740 C.3    18  ASP18       0.1258
      6  CG       -11.0010    1.6360   -2.1090 C.2    18  ASP18       0.3654
      7  OD1      -11.5960    2.3310   -1.2790 O.co2  18  ASP18      -0.2456
      8  OD2      -11.5460    1.2700   -3.1630 O.co2  18  ASP18      -0.2456
      9  CB        -8.4260    4.8620    1.7600 C.3    19  ILE19       0.0000
     10  CG2       -7.7310    6.0060    2.5190 C.3    19  ILE19       0.0000
     11  CG1       -9.9240    4.5740    2.2500 C.3    19  ILE19       0.0000
     12  CD1      -10.9740    5.6950    2.0110 C.3    19  ILE19       0.0000
     13  CB        -3.5230    4.9310   -0.1080 C.3    20  ILE20       0.0000
     14  CG2       -2.1210    5.5060   -0.7390 C.3    20  ILE20       0.0000
     15  CG1       -3.5940    5.4760    1.3470 C.3    20  ILE20       0.0000
     16  CD1       -2.3570    5.1940    2.2260 C.3    20  ILE20       0.0000
     17  CB        -6.6210    3.8650   -5.0310 C.3    21  TRP21       0.0327
     18  CG        -6.7890    3.3770   -6.4480 C.ar   21  TRP21      -0.0013
     19  CD1       -7.1340    4.1960   -7.4760 C.ar   21  TRP21       0.0946
     20  NE1       -7.1740    3.4060   -8.6160 N.ar   21  TRP21      -0.2442
     21  CE2       -6.9360    2.0750   -8.3350 C.ar   21  TRP21       0.0810
     22  CZ2       -6.8300    1.0510   -9.2060 C.ar   21  TRP21       0.0191
     23  CH2       -6.3330   -0.2010   -8.7710 C.ar   21  TRP21       0.0015
     24  CZ3       -5.9560   -0.2520   -7.3640 C.ar   21  TRP21       0.0001
     25  CE3       -6.0150    0.8940   -6.5860 C.ar   21  TRP21       0.0012
     26  CD2       -6.6320    2.0560   -6.9830 C.ar   21  TRP21       0.0152
@<TRIPOS>BOND
     1    22    23   ar
     2    22    21   ar
     3    23    24   ar
     4    20    21   ar
     5    20    19   ar
     6    21    26   ar
     7    19    18   ar
     8    24    25   ar
     9    26    25   ar
    10    26    18   ar
    11    18    17    1
    12     8     6   ar
    13     6     5    1
    14     6     7   ar
    15     3     2    1
    16    14    13    1
    17     2     1    1
    18     2     4    1
    19    13    15    1
    20    15    16    1
    21     9    11    1
    22     9    10    1
    23    12    11    1
@<TRIPOS>MOLECULE
6918493
 49 51 0 0 0
SMALL
GASTEIGER

@<TRIPOS>ATOM
      1 O          -9.6921   -2.0052   -3.2627 O.3     1  LIG11      -0.3632
      2 O          -7.7400    0.9765   -4.5589 O.3     1  LIG11      -0.4495
      3 O         -10.2053    0.9850   -5.7894 O.co2   1  LIG11      -0.5459
      4 O         -10.0035   -1.2336   -6.2327 O.co2   1  LIG11      -0.5459
      5 N          -6.9188    0.4670   -6.6958 N.ar    1  LIG11      -0.2002
      6 N          -7.0497    2.7124   -5.9033 N.ar    1  LIG11      -0.2002
      7 C          -8.9408   -0.7517   -3.2286 C.3     1  LIG11       0.1609
      8 C          -8.4824   -0.2787   -4.6509 C.3     1  LIG11       0.1791
      9 C          -9.8945    0.3074   -2.6001 C.ar    1  LIG11      -0.0075
     10 C          -7.7728   -1.0613   -2.2280 C.ar    1  LIG11      -0.0075
     11 C         -11.2849    0.2323   -2.8013 C.ar    1  LIG11      -0.0554
     12 C          -8.0885   -1.5329   -0.9325 C.ar    1  LIG11      -0.0554
     13 C          -9.4015    1.3987   -1.8575 C.ar    1  LIG11      -0.0554
     14 C          -6.4128   -0.9368   -2.5551 C.ar    1  LIG11      -0.0554
     15 C          -9.6892   -0.1595   -5.6303 C.2     1  LIG11       0.0856
     16 C          -9.0507   -3.1189   -3.8715 C.3     1  LIG11       0.0382
     17 C         -12.1464    1.1960   -2.2707 C.ar    1  LIG11      -0.0614
     18 C          -7.0942   -1.8501   -0.0046 C.ar    1  LIG11      -0.0614
     19 C         -10.2647    2.3516   -1.3100 C.ar    1  LIG11      -0.0614
     20 C          -5.4159   -1.2553   -1.6250 C.ar    1  LIG11      -0.0614
     21 C         -11.6373    2.2504   -1.5177 C.ar    1  LIG11      -0.0617
     22 C          -5.7549   -1.7091   -0.3538 C.ar    1  LIG11      -0.0617
     23 C          -7.2536    1.3916   -5.7803 C.ar    1  LIG11       0.3191
     24 C          -6.5272    0.9244   -7.8958 C.ar    1  LIG11       0.0453
     25 C          -6.6449    3.1383   -7.1133 C.ar    1  LIG11       0.0453
     26 C          -6.3769    2.2716   -8.1569 C.ar    1  LIG11      -0.0193
     27 C          -6.2795   -0.0937   -8.9652 C.3     1  LIG11      -0.0221
     28 C          -6.5133    4.6171   -7.3091 C.3     1  LIG11      -0.0221
     29 H          -7.8039   -1.0400   -5.0575 H       1  LIG11       0.0834
     30 H         -11.6989   -0.5606   -3.4232 H       1  LIG11       0.0621
     31 H          -9.1343   -1.6574   -0.6521 H       1  LIG11       0.0621
     32 H          -8.3304    1.5233   -1.7155 H       1  LIG11       0.0621
     33 H          -6.0988   -0.5935   -3.5369 H       1  LIG11       0.0621
     34 H          -9.7489   -3.9603   -3.8432 H       1  LIG11       0.0524
     35 H          -8.1562   -3.4186   -3.3184 H       1  LIG11       0.0524
     36 H          -8.7916   -2.9438   -4.9156 H       1  LIG11       0.0524
     37 H         -13.2098    1.1324   -2.4793 H       1  LIG11       0.0618
     38 H          -7.3716   -2.2072    0.9815 H       1  LIG11       0.0618
     39 H          -9.8570    3.1850   -0.7466 H       1  LIG11       0.0618
     40 H          -4.3713   -1.1471   -1.9039 H       1  LIG11       0.0618
     41 H         -12.3063    3.0075   -1.1222 H       1  LIG11       0.0618
     42 H          -4.9769   -1.9562    0.3634 H       1  LIG11       0.0618
     43 H          -6.0769    2.6303   -9.1319 H       1  LIG11       0.0653
     44 H          -6.4818   -1.1049   -8.5966 H       1  LIG11       0.0293
     45 H          -5.2363   -0.0523   -9.2927 H       1  LIG11       0.0293
     46 H          -6.9339    0.0906   -9.8230 H       1  LIG11       0.0293
     47 H          -6.7900    5.1586   -6.3988 H       1  LIG11       0.0293
     48 H          -7.1723    4.9523   -8.1165 H       1  LIG11       0.0293
     49 H          -5.4795    4.8748   -7.5590 H       1  LIG11       0.0293
@<TRIPOS>BOND
     1     1     7    1
     2     1    16    1
     3     2     8    1
     4     2    23    1
     5     3    15   ar
     6     4    15   ar
     7     5    23   ar
     8     5    24   ar
     9     6    23   ar
    10     6    25   ar
    11     7     8    1
    12     7     9    1
    13     7    10    1
    14     8    15    1
    15     9    11   ar
    16     9    13   ar
    17    10    12   ar
    18    10    14   ar
    19    11    17   ar
    20    12    18   ar
    21    13    19   ar
    22    14    20   ar
    23    17    21   ar
    24    18    22   ar
    25    19    21   ar
    26    20    22   ar
    27    24    26   ar
    28    24    27    1
    29    25    26   ar
    30    25    28    1
    31     8    29    1
    32    11    30    1
    33    12    31    1
    34    13    32    1
    35    14    33    1
    36    16    34    1
    37    16    35    1
    38    16    36    1
    39    17    37    1
    40    18    38    1
    41    19    39    1
    42    20    40    1
    43    21    41    1
    44    22    42    1
    45    26    43    1
    46    27    44    1
    47    27    45    1
    48    27    46    1
    49    28    47    1
    50    28    48    1
    51    28    49    1
@<TRIPOS>MOLECULE
../1EDN/PCA2_17-21.pdb
 47 48 0 0 0
SMALL
GASTEIGER

@<TRIPOS>ATOM
      1  N         -4.4680    0.3970   -1.5420 N.3    17  LEU17      -0.1231
      2  CA        -5.5730   -0.5090   -1.8150 C.3    17  LEU17       0.1693
      3  CB        -5.9860   -1.2020   -0.4580 C.3    17  LEU17       0.0284
      4  CG        -7.1280   -2.2100   -0.5390 C.3    17  LEU17       0.0019
      5  CD1       -6.7120   -3.3620   -1.4700 C.3    17  LEU17       0.0001
      6  CD2       -7.4980   -2.5610    0.9130 C.3    17  LEU17       0.0001
      7  C         -6.7000    0.2280   -2.5610 C.2    17  LEU17       0.2592
      8  O         -7.1860   -0.2780   -3.5510 O.2    17  LEU17      -0.2718
      9  N         -7.2650    1.2690   -1.9650 N.am   18  ASP18      -0.1960
     10  CA        -8.5260    1.8930   -2.2590 C.3    18  ASP18       0.1840
     11  CB        -9.6810    1.0560   -1.6740 C.3    18  ASP18       0.1450
     12  CG       -11.0010    1.6360   -2.1090 C.2    18  ASP18       0.3671
     13  OD1      -11.5960    2.3310   -1.2790 O.co2  18  ASP18      -0.2456
     14  OD2      -11.5460    1.2700   -3.1630 O.co2  18  ASP18      -0.2456
     15  C         -8.5570    3.3770   -1.7380 C.2    18  ASP18       0.2622
     16  O         -8.6960    4.2620   -2.5680 O.2    18  ASP18      -0.2715
     17  N         -8.4180    3.5730   -0.4160 N.am   19  ILE19      -0.1963
     18  CA        -8.3980    4.9040    0.1930 C.3    19  ILE19       0.1727
     19  CB        -8.4260    4.8620    1.7600 C.3    19  ILE19       0.0290
     20  CG2       -7.7310    6.0060    2.5190 C.3    19  ILE19       0.0023
     21  CG1       -9.9240    4.5740    2.2500 C.3    19  ILE19       0.0022
     22  CD1      -10.9740    5.6950    2.0110 C.3    19  ILE19       0.0001
     23  C         -7.1570    5.7010   -0.3260 C.2    19  ILE19       0.2616
     24  O         -7.3050    6.7970   -0.9200 O.2    19  ILE19      -0.2715
     25  N         -5.9900    5.0720   -0.2260 N.am   20  ILE20      -0.1963
     26  CA        -4.7520    5.3490   -0.9430 C.3    20  ILE20       0.1727
     27  CB        -3.5230    4.9310   -0.1080 C.3    20  ILE20       0.0290
     28  CG2       -2.1210    5.5060   -0.7390 C.3    20  ILE20       0.0023
     29  CG1       -3.5940    5.4760    1.3470 C.3    20  ILE20       0.0022
     30  CD1       -2.3570    5.1940    2.2260 C.3    20  ILE20       0.0001
     31  C         -4.7590    4.7050   -2.3650 C.2    20  ILE20       0.2617
     32  O         -4.2060    3.6200   -2.5900 O.2    20  ILE20      -0.2715
     33  N         -5.4060    5.3330   -3.3880 N.am   21  TRP21      -0.1938
     34  CA        -5.3950    4.7680   -4.7850 C.3    21  TRP21       0.2021
     35  CB        -6.6210    3.8650   -5.0310 C.3    21  TRP21       0.0612
     36  CG        -6.7890    3.3770   -6.4480 C.ar   21  TRP21       0.0007
     37  CD1       -7.1340    4.1960   -7.4760 C.ar   21  TRP21       0.0946
     38  NE1       -7.1740    3.4060   -8.6160 N.ar   21  TRP21      -0.2442
     39  CE2       -6.9360    2.0750   -8.3350 C.ar   21  TRP21       0.0810
     40  CZ2       -6.8300    1.0510   -9.2060 C.ar   21  TRP21       0.0191
     41  CH2       -6.3330   -0.2010   -8.7710 C.ar   21  TRP21       0.0015
     42  CZ3       -5.9560   -0.2520   -7.3640 C.ar   21  TRP21       0.0001
     43  CE3       -6.0150    0.8940   -6.5860 C.ar   21  TRP21       0.0012
     44  CD2       -6.6320    2.0560   -6.9830 C.ar   21  TRP21       0.0152
     45  C         -5.1960    5.8550   -5.8260 C.2    21  TRP21       0.3845
     46  O         -4.1840    5.6720   -6.5070 O.co2  21  TRP21      -0.2437
     47  OXT       -5.9640    6.8330   -6.0170 O.co2  21  TRP21      -0.2437
@<TRIPOS>BOND
     1    40    41   ar
     2    40    39   ar
     3    41    42   ar
     4    38    39   ar
     5    38    37   ar
     6    39    44   ar
     7    37    36   ar
     8    42    43   ar
     9    44    43   ar
    10    44    36   ar
    11    46    45   ar
    12    36    35    1
    13    47    45   ar
    14    45    34    1
    15    35    34    1
    16    34    33    1
    17     8     7    2
    18    33    31   am
    19    14    12   ar
    20    32    31    2
    21    16    15    2
    22     7     9   am
    23     7     2    1
    24    31    26    1
    25    10     9    1
    26    10    15    1
    27    10    11    1
    28    12    11    1
    29    12    13   ar
    30     2     1    1
    31     2     3    1
    32    15    17   am
    33     5     4    1
    34    26    25    1
    35    26    27    1
    36    24    23    2
    37    28    27    1
    38     4     3    1
    39     4     6    1
    40    17    18    1
    41    23    25   am
    42    23    18    1
    43    27    29    1
    44    18    19    1
    45    29    30    1
    46    19    21    1
    47    19    20    1
    48    22    21    1
