@<TRIPOS>MOLECULE
../1EDN/PCA2_17-21_NOBACKBONE.pdb
 26 23 0 0 0
SMALL
GASTEIGER

@<TRIPOS>ATOM
      1  CB        -5.9860   -1.2020   -0.4580 C.3    17  LEU17       0.0000
      2  CG        -7.1280   -2.2100   -0.5390 C.3    17  LEU17       0.0000
      3  CD1       -6.7120   -3.3620   -1.4700 C.3    17  LEU17       0.0000
      4  CD2       -7.4980   -2.5610    0.9130 C.3    17  LEU17       0.0000
      5  CB        -9.6810    1.0560   -1.6740 C.3    18  ASP18       0.1258
      6  CG       -11.0010    1.6360   -2.1090 C.2    18  ASP18       0.3654
      7  OD1      -11.5960    2.3310   -1.2790 O.co2  18  ASP18      -0.2456
      8  OD2      -11.5460    1.2700   -3.1630 O.co2  18  ASP18      -0.2456
      9  CB        -8.4260    4.8620    1.7600 C.3    19  ILE19       0.0000
     10  CG2       -7.7310    6.0060    2.5190 C.3    19  ILE19       0.0000
     11  CG1       -9.9240    4.5740    2.2500 C.3    19  ILE19       0.0000
     12  CD1      -10.9740    5.6950    2.0110 C.3    19  ILE19       0.0000
     13  CB        -3.5230    4.9310   -0.1080 C.3    20  ILE20       0.0000
     14  CG2       -2.1210    5.5060   -0.7390 C.3    20  ILE20       0.0000
     15  CG1       -3.5940    5.4760    1.3470 C.3    20  ILE20       0.0000
     16  CD1       -2.3570    5.1940    2.2260 C.3    20  ILE20       0.0000
     17  CB        -6.6210    3.8650   -5.0310 C.3    21  TRP21       0.0327
     18  CG        -6.7890    3.3770   -6.4480 C.ar   21  TRP21      -0.0013
     19  CD1       -7.1340    4.1960   -7.4760 C.ar   21  TRP21       0.0946
     20  NE1       -7.1740    3.4060   -8.6160 N.ar   21  TRP21      -0.2442
     21  CE2       -6.9360    2.0750   -8.3350 C.ar   21  TRP21       0.0810
     22  CZ2       -6.8300    1.0510   -9.2060 C.ar   21  TRP21       0.0191
     23  CH2       -6.3330   -0.2010   -8.7710 C.ar   21  TRP21       0.0015
     24  CZ3       -5.9560   -0.2520   -7.3640 C.ar   21  TRP21       0.0001
     25  CE3       -6.0150    0.8940   -6.5860 C.ar   21  TRP21       0.0012
     26  CD2       -6.6320    2.0560   -6.9830 C.ar   21  TRP21       0.0152
@<TRIPOS>BOND
     1    22    23   ar
     2    22    21   ar
     3    23    24   ar
     4    20    21   ar
     5    20    19   ar
     6    21    26   ar
     7    19    18   ar
     8    24    25   ar
     9    26    25   ar
    10    26    18   ar
    11    18    17    1
    12     8     6   ar
    13     6     5    1
    14     6     7   ar
    15     3     2    1
    16    14    13    1
    17     2     1    1
    18     2     4    1
    19    13    15    1
    20    15    16    1
    21     9    11    1
    22     9    10    1
    23    12    11    1
@<TRIPOS>MOLECULE
02228316B
 82 86 0 0 0
SMALL
GASTEIGER

@<TRIPOS>ATOM
      1 C          -6.9235    3.8287   -8.0342 C.3     1  LIG11       0.2491
      2 C          -6.4339    4.0187   -6.6158 C.2     1  LIG11       0.3556
      3 N          -6.8652    2.3584   -8.2312 N.2     1  LIG11      -0.0687
      4 C          -6.0729    4.5457   -9.0840 C.3     1  LIG11       0.0059
      5 C          -8.3650    4.3135   -8.2154 C.3     1  LIG11       0.0059
      6 N          -6.4293    2.7688   -6.0623 N.am    1  LIG11      -0.1529
      7 O          -6.0798    5.0705   -6.1043 O.2     1  LIG11      -0.2422
      8 C          -6.5940    1.8753   -7.0581 C.2     1  LIG11       0.2916
      9 C          -7.0134    5.5594   -9.7288 C.3     1  LIG11      -0.0481
     10 C          -8.3833    4.9130   -9.6140 C.3     1  LIG11      -0.0481
     11 C          -5.9716    2.5342   -4.7070 C.3     1  LIG11       0.1137
     12 C          -6.4626    0.3881   -6.8069 C.3     1  LIG11       0.0509
     13 C          -6.9008    3.0935   -3.6580 C.ar    1  LIG11      -0.0073
     14 C          -6.5076   -0.4854   -8.0632 C.3     1  LIG11      -0.0424
     15 C          -8.0870    2.4386   -3.3093 C.ar    1  LIG11      -0.0491
     16 C          -6.5858    4.2826   -3.0027 C.ar    1  LIG11      -0.0544
     17 C          -7.9149   -0.6450   -8.6438 C.3     1  LIG11      -0.0554
     18 C          -8.8922    2.8888   -2.2365 C.ar    1  LIG11      -0.0138
     19 C          -7.3725    4.7353   -1.9437 C.ar    1  LIG11      -0.0533
     20 C          -7.9021   -1.5316   -9.8806 C.3     1  LIG11      -0.0653
     21 C          -8.4671    3.9995   -1.4672 C.ar    1  LIG11      -0.0106
     22 C         -10.1995    2.1613   -1.9974 C.3     1  LIG11       0.0732
     23 C          -9.0929    4.4172   -0.1939 C.ar    1  LIG11       0.0091
     24 O         -10.2316    1.3675   -0.8197 O.3     1  LIG11      -0.3754
     25 C          -8.4492    4.3887    1.0676 C.ar    1  LIG11       0.1162
     26 C         -10.4162    4.9078   -0.2219 C.ar    1  LIG11      -0.0521
     27 C          -9.4843    0.1566   -0.8801 C.3     1  LIG11       0.0453
     28 S          -6.7448    3.8919    1.3313 S.O2    1  LIG11       0.0741
     29 C          -9.1499    4.7556    2.2377 C.ar    1  LIG11      -0.0345
     30 C         -11.1007    5.2746    0.9407 C.ar    1  LIG11      -0.0611
     31 C         -10.0097   -0.8193   -1.9223 C.3     1  LIG11      -0.0416
     32 N          -5.9553    5.4025    1.3709 N.pl3   1  LIG11      -0.1965
     33 O          -6.2516    3.0679    0.2527 O.2     1  LIG11      -0.1499
     34 O          -6.6382    3.4145    2.6989 O.2     1  LIG11      -0.1499
     35 C         -10.4713    5.1871    2.1734 C.ar    1  LIG11      -0.0599
     36 C          -4.8040    5.5580    0.5964 C.ar    1  LIG11       0.1837
     37 C          -3.4803    5.1758    0.9397 C.ar    1  LIG11       0.0342
     38 N          -4.8292    6.2568   -0.5391 N.ar    1  LIG11      -0.0614
     39 C          -2.7315    5.6155   -0.1339 C.ar    1  LIG11       0.1390
     40 C          -2.9912    4.4593    2.1372 C.3     1  LIG11      -0.0330
     41 O          -3.5382    6.2562   -1.0175 O.2     1  LIG11      -0.3578
     42 C          -1.3067    5.5402   -0.5073 C.3     1  LIG11      -0.0034
     43 H          -5.1946    5.0469   -8.6637 H       1  LIG11       0.0316
     44 H          -5.7145    3.8442   -9.8470 H       1  LIG11       0.0316
     45 H          -9.1084    3.5151   -8.1160 H       1  LIG11       0.0316
     46 H          -8.6132    5.0896   -7.4807 H       1  LIG11       0.0316
     47 H          -6.9932    6.5000   -9.1654 H       1  LIG11       0.0267
     48 H          -6.7402    5.7770  -10.7651 H       1  LIG11       0.0267
     49 H          -8.4950    4.1214  -10.3645 H       1  LIG11       0.0267
     50 H          -9.1972    5.6309   -9.7471 H       1  LIG11       0.0267
     51 H          -5.8418    1.4634   -4.5204 H       1  LIG11       0.0783
     52 H          -4.9773    2.9873   -4.6069 H       1  LIG11       0.0783
     53 H          -5.4927    0.2230   -6.3226 H       1  LIG11       0.0387
     54 H          -7.2391    0.0826   -6.0964 H       1  LIG11       0.0387
     55 H          -5.8320   -0.0811   -8.8272 H       1  LIG11       0.0271
     56 H          -6.1255   -1.4806   -7.8021 H       1  LIG11       0.0271
     57 H          -8.3837    1.5508   -3.8650 H       1  LIG11       0.0625
     58 H          -5.7043    4.8580   -3.2816 H       1  LIG11       0.0622
     59 H          -8.5799   -1.0847   -7.8920 H       1  LIG11       0.0263
     60 H          -8.3359    0.3280   -8.9158 H       1  LIG11       0.0263
     61 H          -7.0867    5.6596   -1.4483 H       1  LIG11       0.0624
     62 H          -7.5484   -2.5387   -9.6380 H       1  LIG11       0.0230
     63 H          -8.9107   -1.6170  -10.2971 H       1  LIG11       0.0230
     64 H          -7.2497   -1.1158  -10.6555 H       1  LIG11       0.0230
     65 H         -11.0075    2.8952   -1.9217 H       1  LIG11       0.0610
     66 H         -10.4836    1.5666   -2.8733 H       1  LIG11       0.0610
     67 H         -10.9370    5.0063   -1.1728 H       1  LIG11       0.0624
     68 H          -8.4221    0.3701   -1.0350 H       1  LIG11       0.0557
     69 H          -9.5782   -0.3084    0.1068 H       1  LIG11       0.0557
     70 H          -8.6697    4.7077    3.2135 H       1  LIG11       0.0637
     71 H         -12.1287    5.6223    0.8773 H       1  LIG11       0.0618
     72 H          -9.7453   -0.4976   -2.9347 H       1  LIG11       0.0252
     73 H          -9.5775   -1.8127   -1.7721 H       1  LIG11       0.0252
     74 H         -11.1012   -0.8929   -1.8792 H       1  LIG11       0.0252
     75 H          -5.7621    5.5520    2.3607 H       1  LIG11       0.1753
     76 H         -11.0031    5.4601    3.0814 H       1  LIG11       0.0618
     77 H          -3.7864    4.3000    2.8705 H       1  LIG11       0.0280
     78 H          -2.5838    3.4825    1.8591 H       1  LIG11       0.0280
     79 H          -2.1990    5.0356    2.6274 H       1  LIG11       0.0280
     80 H          -0.6820    5.3030    0.3587 H       1  LIG11       0.0309
     81 H          -1.1547    4.7637   -1.2635 H       1  LIG11       0.0309
     82 H          -0.9627    6.4937   -0.9208 H       1  LIG11       0.0309
@<TRIPOS>BOND
     1     1     5    1
     2     1     4    1
     3     1     2    1
     4     1     3    1
     5     2     6   am
     6     2     7    2
     7     3     8    2
     8     4     9    1
     9     5    10    1
    10     6     8    1
    11     6    11    1
    12     8    12    1
    13     9    10    1
    14    11    13    1
    15    12    14    1
    16    13    15   ar
    17    13    16   ar
    18    14    17    1
    19    15    18   ar
    20    16    19   ar
    21    17    20    1
    22    18    21   ar
    23    18    22    1
    24    19    21   ar
    25    21    23    1
    26    22    24    1
    27    23    26   ar
    28    23    25   ar
    29    24    27    1
    30    25    29   ar
    31    25    28    1
    32    26    30   ar
    33    27    31    1
    34    28    34    2
    35    28    33    2
    36    28    32    1
    37    29    35   ar
    38    30    35   ar
    39    32    36    1
    40    36    37   ar
    41    36    38   ar
    42    37    39   ar
    43    37    40    1
    44    38    41   ar
    45    39    41   ar
    46    39    42    1
    47     4    43    1
    48     4    44    1
    49     5    45    1
    50     5    46    1
    51     9    47    1
    52     9    48    1
    53    10    49    1
    54    10    50    1
    55    11    51    1
    56    11    52    1
    57    12    53    1
    58    12    54    1
    59    14    55    1
    60    14    56    1
    61    15    57    1
    62    16    58    1
    63    17    59    1
    64    17    60    1
    65    19    61    1
    66    20    62    1
    67    20    63    1
    68    20    64    1
    69    22    65    1
    70    22    66    1
    71    26    67    1
    72    27    68    1
    73    27    69    1
    74    29    70    1
    75    30    71    1
    76    31    72    1
    77    31    73    1
    78    31    74    1
    79    32    75    1
    80    35    76    1
    81    40    77    1
    82    40    78    1
    83    40    79    1
    84    42    80    1
    85    42    81    1
    86    42    82    1
@<TRIPOS>MOLECULE
../1EDN/PCA2_17-21.pdb
 47 48 0 0 0
SMALL
GASTEIGER

@<TRIPOS>ATOM
      1  N         -4.4680    0.3970   -1.5420 N.3    17  LEU17      -0.1231
      2  CA        -5.5730   -0.5090   -1.8150 C.3    17  LEU17       0.1693
      3  CB        -5.9860   -1.2020   -0.4580 C.3    17  LEU17       0.0284
      4  CG        -7.1280   -2.2100   -0.5390 C.3    17  LEU17       0.0019
      5  CD1       -6.7120   -3.3620   -1.4700 C.3    17  LEU17       0.0001
      6  CD2       -7.4980   -2.5610    0.9130 C.3    17  LEU17       0.0001
      7  C         -6.7000    0.2280   -2.5610 C.2    17  LEU17       0.2592
      8  O         -7.1860   -0.2780   -3.5510 O.2    17  LEU17      -0.2718
      9  N         -7.2650    1.2690   -1.9650 N.am   18  ASP18      -0.1960
     10  CA        -8.5260    1.8930   -2.2590 C.3    18  ASP18       0.1840
     11  CB        -9.6810    1.0560   -1.6740 C.3    18  ASP18       0.1450
     12  CG       -11.0010    1.6360   -2.1090 C.2    18  ASP18       0.3671
     13  OD1      -11.5960    2.3310   -1.2790 O.co2  18  ASP18      -0.2456
     14  OD2      -11.5460    1.2700   -3.1630 O.co2  18  ASP18      -0.2456
     15  C         -8.5570    3.3770   -1.7380 C.2    18  ASP18       0.2622
     16  O         -8.6960    4.2620   -2.5680 O.2    18  ASP18      -0.2715
     17  N         -8.4180    3.5730   -0.4160 N.am   19  ILE19      -0.1963
     18  CA        -8.3980    4.9040    0.1930 C.3    19  ILE19       0.1727
     19  CB        -8.4260    4.8620    1.7600 C.3    19  ILE19       0.0290
     20  CG2       -7.7310    6.0060    2.5190 C.3    19  ILE19       0.0023
     21  CG1       -9.9240    4.5740    2.2500 C.3    19  ILE19       0.0022
     22  CD1      -10.9740    5.6950    2.0110 C.3    19  ILE19       0.0001
     23  C         -7.1570    5.7010   -0.3260 C.2    19  ILE19       0.2616
     24  O         -7.3050    6.7970   -0.9200 O.2    19  ILE19      -0.2715
     25  N         -5.9900    5.0720   -0.2260 N.am   20  ILE20      -0.1963
     26  CA        -4.7520    5.3490   -0.9430 C.3    20  ILE20       0.1727
     27  CB        -3.5230    4.9310   -0.1080 C.3    20  ILE20       0.0290
     28  CG2       -2.1210    5.5060   -0.7390 C.3    20  ILE20       0.0023
     29  CG1       -3.5940    5.4760    1.3470 C.3    20  ILE20       0.0022
     30  CD1       -2.3570    5.1940    2.2260 C.3    20  ILE20       0.0001
     31  C         -4.7590    4.7050   -2.3650 C.2    20  ILE20       0.2617
     32  O         -4.2060    3.6200   -2.5900 O.2    20  ILE20      -0.2715
     33  N         -5.4060    5.3330   -3.3880 N.am   21  TRP21      -0.1938
     34  CA        -5.3950    4.7680   -4.7850 C.3    21  TRP21       0.2021
     35  CB        -6.6210    3.8650   -5.0310 C.3    21  TRP21       0.0612
     36  CG        -6.7890    3.3770   -6.4480 C.ar   21  TRP21       0.0007
     37  CD1       -7.1340    4.1960   -7.4760 C.ar   21  TRP21       0.0946
     38  NE1       -7.1740    3.4060   -8.6160 N.ar   21  TRP21      -0.2442
     39  CE2       -6.9360    2.0750   -8.3350 C.ar   21  TRP21       0.0810
     40  CZ2       -6.8300    1.0510   -9.2060 C.ar   21  TRP21       0.0191
     41  CH2       -6.3330   -0.2010   -8.7710 C.ar   21  TRP21       0.0015
     42  CZ3       -5.9560   -0.2520   -7.3640 C.ar   21  TRP21       0.0001
     43  CE3       -6.0150    0.8940   -6.5860 C.ar   21  TRP21       0.0012
     44  CD2       -6.6320    2.0560   -6.9830 C.ar   21  TRP21       0.0152
     45  C         -5.1960    5.8550   -5.8260 C.2    21  TRP21       0.3845
     46  O         -4.1840    5.6720   -6.5070 O.co2  21  TRP21      -0.2437
     47  OXT       -5.9640    6.8330   -6.0170 O.co2  21  TRP21      -0.2437
@<TRIPOS>BOND
     1    40    41   ar
     2    40    39   ar
     3    41    42   ar
     4    38    39   ar
     5    38    37   ar
     6    39    44   ar
     7    37    36   ar
     8    42    43   ar
     9    44    43   ar
    10    44    36   ar
    11    46    45   ar
    12    36    35    1
    13    47    45   ar
    14    45    34    1
    15    35    34    1
    16    34    33    1
    17     8     7    2
    18    33    31   am
    19    14    12   ar
    20    32    31    2
    21    16    15    2
    22     7     9   am
    23     7     2    1
    24    31    26    1
    25    10     9    1
    26    10    15    1
    27    10    11    1
    28    12    11    1
    29    12    13   ar
    30     2     1    1
    31     2     3    1
    32    15    17   am
    33     5     4    1
    34    26    25    1
    35    26    27    1
    36    24    23    2
    37    28    27    1
    38     4     3    1
    39     4     6    1
    40    17    18    1
    41    23    25   am
    42    23    18    1
    43    27    29    1
    44    18    19    1
    45    29    30    1
    46    19    21    1
    47    19    20    1
    48    22    21    1
