@<TRIPOS>MOLECULE
../1EDN/PCA3_17-21_NOBACKBONE.pdb
 26 23 0 0 0
SMALL
GASTEIGER

@<TRIPOS>ATOM
      1  CB        -5.7360   -1.8160   -1.1010 C.3    17  LEU17       0.0000
      2  CG        -6.9950   -2.5690   -1.5730 C.3    17  LEU17       0.0000
      3  CD1       -6.7530   -3.1800   -3.0080 C.3    17  LEU17       0.0000
      4  CD2       -7.2580   -3.7400   -0.6960 C.3    17  LEU17       0.0000
      5  CB        -9.1090    1.3410    0.3760 C.3    18  ASP18       0.1258
      6  CG       -10.1470    2.2990    0.9520 C.2    18  ASP18       0.3654
      7  OD1      -11.0720    2.5310    0.1500 O.co2  18  ASP18      -0.2456
      8  OD2      -10.1960    2.6850    2.1610 O.co2  18  ASP18      -0.2456
      9  CB        -5.3140    3.8890    3.0670 C.3    19  ILE19       0.0000
     10  CG2       -4.6600    5.0630    3.8540 C.3    19  ILE19       0.0000
     11  CG1       -6.1440    2.9790    3.9890 C.3    19  ILE19       0.0000
     12  CD1       -5.5170    2.2940    5.2130 C.3    19  ILE19       0.0000
     13  CB        -2.4460    5.7340   -1.0120 C.3    20  ILE20       0.0000
     14  CG2       -2.3030    7.0110   -0.1100 C.3    20  ILE20       0.0000
     15  CG1       -1.4300    4.6170   -0.6100 C.3    20  ILE20       0.0000
     16  CD1        0.0800    4.9990   -0.7110 C.3    20  ILE20       0.0000
     17  CB        -6.2680    3.7450   -4.8170 C.3    21  TRP21       0.0327
     18  CG        -6.5090    2.9660   -6.0890 C.ar   21  TRP21      -0.0013
     19  CD1       -7.0550    3.4090   -7.2190 C.ar   21  TRP21       0.0946
     20  NE1       -7.1560    2.4190   -8.1260 N.ar   21  TRP21      -0.2442
     21  CE2       -6.6880    1.2600   -7.6470 C.ar   21  TRP21       0.0810
     22  CZ2       -6.5320   -0.1050   -8.0600 C.ar   21  TRP21       0.0191
     23  CH2       -5.9630   -1.0770   -7.2340 C.ar   21  TRP21       0.0015
     24  CZ3       -5.4330   -0.7150   -5.9030 C.ar   21  TRP21       0.0001
     25  CE3       -5.5290    0.6400   -5.5430 C.ar   21  TRP21       0.0012
     26  CD2       -6.2440    1.5830   -6.3190 C.ar   21  TRP21       0.0152
@<TRIPOS>BOND
     1    20    21   ar
     2    20    19   ar
     3    22    21   ar
     4    22    23   ar
     5    21    26   ar
     6    23    24   ar
     7    19    18   ar
     8    26    18   ar
     9    26    25   ar
    10    18    17    1
    11    24    25   ar
    12     3     2    1
    13     2     1    1
    14     2     4    1
    15    13    15    1
    16    13    14    1
    17    16    15    1
    18     7     6   ar
    19     5     6    1
    20     6     8   ar
    21     9    10    1
    22     9    11    1
    23    11    12    1
@<TRIPOS>MOLECULE
01012527H
 86 88 0 0 0
SMALL
GASTEIGER

@<TRIPOS>ATOM
      1 C          -7.5433    4.5428   -4.6676 C.3     1  LIG11       0.0531
      2 C          -7.1996    4.4159   -3.1890 C.3     1  LIG11      -0.0111
      3 C          -6.2997    4.2351   -5.4877 C.3     1  LIG11       0.0375
      4 C          -7.8946    6.0272   -4.6974 C.2     1  LIG11       0.0509
      5 N          -5.6551    4.3510   -3.1512 N.4     1  LIG11       0.2448
      6 C          -7.7116    3.1512   -2.4613 C.3     1  LIG11      -0.0039
      7 C          -6.3068    2.8168   -6.0482 C.ar    1  LIG11      -0.0313
      8 C          -5.1377    4.5813   -4.5637 C.3     1  LIG11      -0.0234
      9 O          -6.9079    6.8121   -4.7251 O.co2   1  LIG11      -0.5493
     10 O          -9.1199    6.2728   -4.5638 O.co2   1  LIG11      -0.5493
     11 C          -5.0580    5.3382   -2.1480 C.3     1  LIG11       0.0465
     12 C          -9.2124    3.0903   -2.0311 C.3     1  LIG11      -0.0298
     13 C          -6.7948    2.6240   -7.3522 C.ar    1  LIG11      -0.0122
     14 C          -5.8522    1.6866   -5.3334 C.ar    1  LIG11      -0.0124
     15 C          -3.5461    5.1378   -1.9696 C.2     1  LIG11       0.2608
     16 C          -9.4139    1.9024   -1.0314 C.3     1  LIG11      -0.0479
     17 C         -10.1165    2.8017   -3.2478 C.3     1  LIG11      -0.0596
     18 C          -9.6815    4.4047   -1.3837 C.3     1  LIG11      -0.0596
     19 C          -6.7723    1.3520   -7.8898 C.ar    1  LIG11       0.1702
     20 C          -5.8768    0.3921   -5.8825 C.ar    1  LIG11       0.1656
     21 N          -2.8583    5.9611   -1.0860 N.am    1  LIG11      -0.2971
     22 O          -2.9777    4.2451   -2.6083 O.2     1  LIG11      -0.2697
     23 C          -8.7941    2.0779    0.3626 C.3     1  LIG11      -0.0554
     24 C          -6.3256    0.2579   -7.1823 C.ar    1  LIG11       0.2075
     25 O          -7.1657    1.0392   -9.1549 O.3     1  LIG11      -0.4525
     26 O          -5.4241   -0.5843   -5.0418 O.3     1  LIG11      -0.4913
     27 C          -3.4830    6.9484   -0.1905 C.3     1  LIG11       0.0148
     28 C          -1.3920    5.8739   -1.0835 C.3     1  LIG11       0.0148
     29 C          -9.0552    0.8623    1.2411 C.3     1  LIG11      -0.0653
     30 O          -6.3847   -0.8769   -7.9342 O.3     1  LIG11      -0.4489
     31 C          -6.8515   -0.3630   -9.1961 C.3     1  LIG11       0.2334
     32 C          -5.6804   -1.9297   -5.4285 C.3     1  LIG11       0.0790
     33 C          -3.1631    6.6860    1.2849 C.3     1  LIG11      -0.0374
     34 C          -0.8709    4.6395   -0.3403 C.3     1  LIG11      -0.0374
     35 C          -3.9116    7.6403    2.2140 C.3     1  LIG11      -0.0545
     36 C           0.6525    4.6172   -0.2035 C.3     1  LIG11      -0.0545
     37 C          -3.4804    7.4504    3.6610 C.3     1  LIG11      -0.0652
     38 C           1.3814    4.5677   -1.5375 C.3     1  LIG11      -0.0652
     39 H          -8.4067    3.9588   -4.9900 H       1  LIG11       0.0424
     40 H          -7.4715    5.2874   -2.5815 H       1  LIG11       0.0858
     41 H          -6.2263    4.9036   -6.3571 H       1  LIG11       0.0409
     42 H          -5.3268    3.4202   -2.8752 H       1  LIG11       0.2042
     43 H          -7.4803    2.2604   -3.0565 H       1  LIG11       0.0325
     44 H          -7.1052    3.0561   -1.5528 H       1  LIG11       0.0325
     45 H          -4.2583    3.9483   -4.7161 H       1  LIG11       0.0821
     46 H          -4.8317    5.6280   -4.6514 H       1  LIG11       0.0821
     47 H          -5.2760    6.3507   -2.4995 H       1  LIG11       0.0913
     48 H          -5.5538    5.1337   -1.1942 H       1  LIG11       0.0913
     49 H          -7.1687    3.4532   -7.9472 H       1  LIG11       0.0658
     50 H          -5.4672    1.7806   -4.3237 H       1  LIG11       0.0658
     51 H         -10.4906    1.7314   -0.8942 H       1  LIG11       0.0270
     52 H          -9.0170    0.9844   -1.4857 H       1  LIG11       0.0270
     53 H         -10.1965    3.6648   -3.9130 H       1  LIG11       0.0235
     54 H          -9.7431    1.9507   -3.8282 H       1  LIG11       0.0235
     55 H         -11.1392    2.5624   -2.9334 H       1  LIG11       0.0235
     56 H          -9.7537    5.2139   -2.1169 H       1  LIG11       0.0235
     57 H         -10.6766    4.2896   -0.9385 H       1  LIG11       0.0235
     58 H          -8.9950    4.7355   -0.5978 H       1  LIG11       0.0235
     59 H          -7.7130    2.2294    0.2964 H       1  LIG11       0.0263
     60 H          -9.2179    2.9565    0.8604 H       1  LIG11       0.0263
     61 H          -3.1181    7.9375   -0.4906 H       1  LIG11       0.0464
     62 H          -4.5669    6.9535   -0.3270 H       1  LIG11       0.0464
     63 H          -1.0633    5.8443   -2.1290 H       1  LIG11       0.0464
     64 H          -0.9820    6.7929   -0.6493 H       1  LIG11       0.0464
     65 H          -8.6162   -0.0397    0.8034 H       1  LIG11       0.0230
     66 H          -8.6121    1.0100    2.2311 H       1  LIG11       0.0230
     67 H         -10.1292    0.6958    1.3721 H       1  LIG11       0.0230
     68 H          -7.7479   -0.9187   -9.4925 H       1  LIG11       0.1166
     69 H          -6.0723   -0.5269   -9.9505 H       1  LIG11       0.1166
     70 H          -5.4115   -2.5729   -4.5847 H       1  LIG11       0.0660
     71 H          -6.7431   -2.0932   -5.6378 H       1  LIG11       0.0660
     72 H          -5.0514   -2.2207   -6.2752 H       1  LIG11       0.0660
     73 H          -3.4219    5.6507    1.5396 H       1  LIG11       0.0280
     74 H          -2.0855    6.7948    1.4556 H       1  LIG11       0.0280
     75 H          -1.3073    4.5989    0.6641 H       1  LIG11       0.0280
     76 H          -1.1995    3.7250   -0.8475 H       1  LIG11       0.0280
     77 H          -3.7239    8.6785    1.9177 H       1  LIG11       0.0263
     78 H          -4.9906    7.4665    2.1325 H       1  LIG11       0.0263
     79 H           0.9879    5.4936    0.3629 H       1  LIG11       0.0263
     80 H           0.9346    3.7341    0.3821 H       1  LIG11       0.0263
     81 H          -2.4153    7.6744    3.7834 H       1  LIG11       0.0230
     82 H          -4.0442    8.1200    4.3177 H       1  LIG11       0.0230
     83 H          -3.6536    6.4215    3.9926 H       1  LIG11       0.0230
     84 H           1.2455    5.4952   -2.1019 H       1  LIG11       0.0230
     85 H           2.4556    4.4356   -1.3739 H       1  LIG11       0.0230
     86 H           1.0260    3.7335   -2.1504 H       1  LIG11       0.0230
@<TRIPOS>BOND
     1     1     2    1
     2     1     3    1
     3     1     4    1
     4     2     5    1
     5     2     6    1
     6     3     8    1
     7     3     7    1
     8     4    10   ar
     9     4     9   ar
    10     5     8    1
    11     5    11    1
    12     6    12    1
    13     7    14   ar
    14     7    13   ar
    15    11    15    1
    16    12    18    1
    17    12    17    1
    18    12    16    1
    19    13    19   ar
    20    14    20   ar
    21    15    22    2
    22    15    21   am
    23    16    23    1
    24    19    25    1
    25    19    24   ar
    26    20    24   ar
    27    20    26    1
    28    21    28    1
    29    21    27    1
    30    23    29    1
    31    24    30    1
    32    25    31    1
    33    26    32    1
    34    27    33    1
    35    28    34    1
    36    30    31    1
    37    33    35    1
    38    34    36    1
    39    35    37    1
    40    36    38    1
    41     1    39    1
    42     2    40    1
    43     3    41    1
    44     5    42    1
    45     6    43    1
    46     6    44    1
    47     8    45    1
    48     8    46    1
    49    11    47    1
    50    11    48    1
    51    13    49    1
    52    14    50    1
    53    16    51    1
    54    16    52    1
    55    17    53    1
    56    17    54    1
    57    17    55    1
    58    18    56    1
    59    18    57    1
    60    18    58    1
    61    23    59    1
    62    23    60    1
    63    27    61    1
    64    27    62    1
    65    28    63    1
    66    28    64    1
    67    29    65    1
    68    29    66    1
    69    29    67    1
    70    31    68    1
    71    31    69    1
    72    32    70    1
    73    32    71    1
    74    32    72    1
    75    33    73    1
    76    33    74    1
    77    34    75    1
    78    34    76    1
    79    35    77    1
    80    35    78    1
    81    36    79    1
    82    36    80    1
    83    37    81    1
    84    37    82    1
    85    37    83    1
    86    38    84    1
    87    38    85    1
    88    38    86    1
@<TRIPOS>MOLECULE
../1EDN/PCA3_17-21.pdb
 47 48 0 0 0
SMALL
GASTEIGER

@<TRIPOS>ATOM
      1  N         -4.2370    0.0490   -1.5930 N.3    17  LEU17      -0.1231
      2  CA        -5.5250   -0.5610   -1.9200 C.3    17  LEU17       0.1693
      3  CB        -5.7360   -1.8160   -1.1010 C.3    17  LEU17       0.0284
      4  CG        -6.9950   -2.5690   -1.5730 C.3    17  LEU17       0.0019
      5  CD1       -6.7530   -3.1800   -3.0080 C.3    17  LEU17       0.0001
      6  CD2       -7.2580   -3.7400   -0.6960 C.3    17  LEU17       0.0001
      7  C         -6.6810    0.4320   -1.9250 C.2    17  LEU17       0.2592
      8  O         -7.3270    0.6200   -2.9560 O.2    17  LEU17      -0.2718
      9  N         -6.9500    1.1080   -0.7900 N.am   18  ASP18      -0.1960
     10  CA        -8.0880    2.0070   -0.5710 C.3    18  ASP18       0.1840
     11  CB        -9.1090    1.3410    0.3760 C.3    18  ASP18       0.1450
     12  CG       -10.1470    2.2990    0.9520 C.2    18  ASP18       0.3671
     13  OD1      -11.0720    2.5310    0.1500 O.co2  18  ASP18      -0.2456
     14  OD2      -10.1960    2.6850    2.1610 O.co2  18  ASP18      -0.2456
     15  C         -7.6280    3.3500    0.0060 C.2    18  ASP18       0.2622
     16  O         -7.9950    4.4650   -0.3580 O.2    18  ASP18      -0.2715
     17  N         -6.8140    3.2050    1.0390 N.am   19  ILE19      -0.1963
     18  CA        -6.1800    4.3790    1.8160 C.3    19  ILE19       0.1727
     19  CB        -5.3140    3.8890    3.0670 C.3    19  ILE19       0.0290
     20  CG2       -4.6600    5.0630    3.8540 C.3    19  ILE19       0.0023
     21  CG1       -6.1440    2.9790    3.9890 C.3    19  ILE19       0.0022
     22  CD1       -5.5170    2.2940    5.2130 C.3    19  ILE19       0.0001
     23  C         -5.2670    5.2520    0.8640 C.2    19  ILE19       0.2616
     24  O         -5.3920    6.4650    0.9090 O.2    19  ILE19      -0.2715
     25  N         -4.4890    4.6060    0.0020 N.am   20  ILE20      -0.1963
     26  CA        -3.9690    5.2910   -1.1850 C.3    20  ILE20       0.1727
     27  CB        -2.4460    5.7340   -1.0120 C.3    20  ILE20       0.0290
     28  CG2       -2.3030    7.0110   -0.1100 C.3    20  ILE20       0.0023
     29  CG1       -1.4300    4.6170   -0.6100 C.3    20  ILE20       0.0022
     30  CD1        0.0800    4.9990   -0.7110 C.3    20  ILE20       0.0001
     31  C         -4.1660    4.3690   -2.4130 C.2    20  ILE20       0.2617
     32  O         -3.9200    3.1710   -2.5010 O.2    20  ILE20      -0.2715
     33  N         -4.6410    5.0460   -3.5090 N.am   21  TRP21      -0.1938
     34  CA        -4.8980    4.4430   -4.8120 C.3    21  TRP21       0.2021
     35  CB        -6.2680    3.7450   -4.8170 C.3    21  TRP21       0.0612
     36  CG        -6.5090    2.9660   -6.0890 C.ar   21  TRP21       0.0007
     37  CD1       -7.0550    3.4090   -7.2190 C.ar   21  TRP21       0.0946
     38  NE1       -7.1560    2.4190   -8.1260 N.ar   21  TRP21      -0.2442
     39  CE2       -6.6880    1.2600   -7.6470 C.ar   21  TRP21       0.0810
     40  CZ2       -6.5320   -0.1050   -8.0600 C.ar   21  TRP21       0.0191
     41  CH2       -5.9630   -1.0770   -7.2340 C.ar   21  TRP21       0.0015
     42  CZ3       -5.4330   -0.7150   -5.9030 C.ar   21  TRP21       0.0001
     43  CE3       -5.5290    0.6400   -5.5430 C.ar   21  TRP21       0.0012
     44  CD2       -6.2440    1.5830   -6.3190 C.ar   21  TRP21       0.0152
     45  C         -4.7460    5.5030   -5.9410 C.2    21  TRP21       0.3845
     46  O         -5.6740    6.3580   -6.0770 O.co2  21  TRP21      -0.2437
     47  OXT       -3.7150    5.4030   -6.6310 O.co2  21  TRP21      -0.2437
@<TRIPOS>BOND
     1    38    39   ar
     2    38    37   ar
     3    40    39   ar
     4    40    41   ar
     5    39    44   ar
     6    41    42   ar
     7    37    36   ar
     8    47    45   ar
     9    44    36   ar
    10    44    43   ar
    11    36    35    1
    12    46    45   ar
    13    45    34    1
    14    42    43   ar
    15    35    34    1
    16    34    33    1
    17    33    31   am
    18     5     4    1
    19     8     7    2
    20    32    31    2
    21    31    26    1
    22     7     2    1
    23     7     9   am
    24     2     1    1
    25     2     3    1
    26     4     3    1
    27     4     6    1
    28    26    27    1
    29    26    25    1
    30    27    29    1
    31    27    28    1
    32     9    10    1
    33    30    29    1
    34    10    15    1
    35    10    11    1
    36    16    15    2
    37    25    23   am
    38    15    17   am
    39    13    12   ar
    40    11    12    1
    41    23    24    2
    42    23    18    1
    43    12    14   ar
    44    17    18    1
    45    18    19    1
    46    19    20    1
    47    19    21    1
    48    21    22    1
