@<TRIPOS>MOLECULE
../1EDN/PCA3_17-21_NOBACKBONE.pdb
 26 23 0 0 0
SMALL
GASTEIGER

@<TRIPOS>ATOM
      1  CB        -5.7360   -1.8160   -1.1010 C.3    17  LEU17       0.0000
      2  CG        -6.9950   -2.5690   -1.5730 C.3    17  LEU17       0.0000
      3  CD1       -6.7530   -3.1800   -3.0080 C.3    17  LEU17       0.0000
      4  CD2       -7.2580   -3.7400   -0.6960 C.3    17  LEU17       0.0000
      5  CB        -9.1090    1.3410    0.3760 C.3    18  ASP18       0.1258
      6  CG       -10.1470    2.2990    0.9520 C.2    18  ASP18       0.3654
      7  OD1      -11.0720    2.5310    0.1500 O.co2  18  ASP18      -0.2456
      8  OD2      -10.1960    2.6850    2.1610 O.co2  18  ASP18      -0.2456
      9  CB        -5.3140    3.8890    3.0670 C.3    19  ILE19       0.0000
     10  CG2       -4.6600    5.0630    3.8540 C.3    19  ILE19       0.0000
     11  CG1       -6.1440    2.9790    3.9890 C.3    19  ILE19       0.0000
     12  CD1       -5.5170    2.2940    5.2130 C.3    19  ILE19       0.0000
     13  CB        -2.4460    5.7340   -1.0120 C.3    20  ILE20       0.0000
     14  CG2       -2.3030    7.0110   -0.1100 C.3    20  ILE20       0.0000
     15  CG1       -1.4300    4.6170   -0.6100 C.3    20  ILE20       0.0000
     16  CD1        0.0800    4.9990   -0.7110 C.3    20  ILE20       0.0000
     17  CB        -6.2680    3.7450   -4.8170 C.3    21  TRP21       0.0327
     18  CG        -6.5090    2.9660   -6.0890 C.ar   21  TRP21      -0.0013
     19  CD1       -7.0550    3.4090   -7.2190 C.ar   21  TRP21       0.0946
     20  NE1       -7.1560    2.4190   -8.1260 N.ar   21  TRP21      -0.2442
     21  CE2       -6.6880    1.2600   -7.6470 C.ar   21  TRP21       0.0810
     22  CZ2       -6.5320   -0.1050   -8.0600 C.ar   21  TRP21       0.0191
     23  CH2       -5.9630   -1.0770   -7.2340 C.ar   21  TRP21       0.0015
     24  CZ3       -5.4330   -0.7150   -5.9030 C.ar   21  TRP21       0.0001
     25  CE3       -5.5290    0.6400   -5.5430 C.ar   21  TRP21       0.0012
     26  CD2       -6.2440    1.5830   -6.3190 C.ar   21  TRP21       0.0152
@<TRIPOS>BOND
     1    20    21   ar
     2    20    19   ar
     3    22    21   ar
     4    22    23   ar
     5    21    26   ar
     6    23    24   ar
     7    19    18   ar
     8    26    18   ar
     9    26    25   ar
    10    18    17    1
    11    24    25   ar
    12     3     2    1
    13     2     1    1
    14     2     4    1
    15    13    15    1
    16    13    14    1
    17    16    15    1
    18     7     6   ar
    19     5     6    1
    20     6     8   ar
    21     9    10    1
    22     9    11    1
    23    11    12    1
@<TRIPOS>MOLECULE
104865
 68 71 0 0 0
SMALL
GASTEIGER

@<TRIPOS>ATOM
      1 S          -4.7836    3.4841   -1.9077 S.O2    1  LIG11       0.0736
      2 O          -3.7562    2.5211   -2.2345 O.2     1  LIG11      -0.1499
      3 O          -4.6460    4.8819   -2.2707 O.2     1  LIG11      -0.1499
      4 O          -5.9149    2.9411   -5.2686 O.3     1  LIG11      -0.4435
      5 O          -5.5888    0.3232   -6.4459 O.3     1  LIG11      -0.4715
      6 O          -4.3078    3.9932   -7.0810 O.3     1  LIG11      -0.4914
      7 O          -5.7714   -2.7586   -8.4078 O.3     1  LIG11      -0.3917
      8 N          -6.2849    3.0263   -2.5415 N.pl3   1  LIG11      -0.1963
      9 N          -6.3943    0.7131   -2.4536 N.ar    1  LIG11      -0.2044
     10 N          -6.0797   -0.6418   -4.3910 N.ar    1  LIG11      -0.1866
     11 N          -6.9370   -2.8382   -2.8792 N.ar    1  LIG11      -0.2331
     12 N          -6.3124   -1.6389   -0.9085 N.ar    1  LIG11      -0.2331
     13 C          -5.6224    3.2231    4.1692 C.3     1  LIG11      -0.0127
     14 C          -5.4238    3.3173    2.6453 C.ar    1  LIG11      -0.0419
     15 C          -4.5702    2.2711    4.7792 C.3     1  LIG11      -0.0560
     16 C          -7.0350    2.6792    4.4695 C.3     1  LIG11      -0.0560
     17 C          -5.4854    4.5771    4.9027 C.3     1  LIG11      -0.0560
     18 C          -5.4620    2.1501    1.8532 C.ar    1  LIG11      -0.0562
     19 C          -5.2012    4.5386    1.9856 C.ar    1  LIG11      -0.0562
     20 C          -5.0632    3.4223   -0.1557 C.ar    1  LIG11       0.1086
     21 C          -5.2756    2.1963    0.4679 C.ar    1  LIG11      -0.0348
     22 C          -5.0211    4.5952    0.5991 C.ar    1  LIG11      -0.0348
     23 C          -6.2554    1.7873   -3.2417 C.ar    1  LIG11       0.1883
     24 C          -6.0441    1.7500   -4.6061 C.ar    1  LIG11       0.2307
     25 C          -5.9472    0.4773   -5.1272 C.ar    1  LIG11       0.2642
     26 C          -6.3125   -0.4867   -3.0672 C.ar    1  LIG11       0.2027
     27 C          -6.3907    3.0354   -6.5594 C.ar    1  LIG11       0.1702
     28 C          -6.5215   -1.7138   -2.2457 C.ar    1  LIG11       0.1978
     29 C          -6.2243   -0.7738   -7.1042 C.3     1  LIG11       0.1143
     30 C          -5.5401    3.5944   -7.5265 C.ar    1  LIG11       0.1621
     31 C          -7.6937    2.6438   -6.8915 C.ar    1  LIG11      -0.0157
     32 C          -5.9909    3.6935   -8.8451 C.ar    1  LIG11      -0.0163
     33 C          -5.1665   -1.7395   -7.6191 C.3     1  LIG11       0.0783
     34 C          -8.1292    2.7441   -8.2110 C.ar    1  LIG11      -0.0581
     35 C          -7.2768    3.2606   -9.1860 C.ar    1  LIG11      -0.0581
     36 C          -7.1453   -3.9250   -2.1156 C.ar    1  LIG11       0.0315
     37 C          -6.5269   -2.7625   -0.1995 C.ar    1  LIG11       0.0315
     38 C          -6.9521   -3.9449   -0.7561 C.ar    1  LIG11      -0.0254
     39 C          -3.4302    4.5895   -8.0251 C.3     1  LIG11       0.0790
     40 H          -5.0561   -3.3535   -8.6916 H       1  LIG11       0.2095
     41 H          -6.5991    3.8027   -3.1254 H       1  LIG11       0.1754
     42 H          -4.6693    1.2467    4.4044 H       1  LIG11       0.0238
     43 H          -4.6673    2.2216    5.8702 H       1  LIG11       0.0238
     44 H          -3.5526    2.6092    4.5501 H       1  LIG11       0.0238
     45 H          -7.1830    1.6705    4.0684 H       1  LIG11       0.0238
     46 H          -7.8069    3.3236    4.0324 H       1  LIG11       0.0238
     47 H          -7.2169    2.6265    5.5493 H       1  LIG11       0.0238
     48 H          -4.4932    5.0185    4.7518 H       1  LIG11       0.0238
     49 H          -5.6238    4.4566    5.9840 H       1  LIG11       0.0238
     50 H          -6.2363    5.2997    4.5627 H       1  LIG11       0.0238
     51 H          -5.6354    1.1767    2.3085 H       1  LIG11       0.0621
     52 H          -5.1565    5.4777    2.5309 H       1  LIG11       0.0621
     53 H          -5.2961    1.2730   -0.1073 H       1  LIG11       0.0637
     54 H          -4.8395    5.5573    0.1253 H       1  LIG11       0.0637
     55 H          -6.7789   -0.3639   -7.9571 H       1  LIG11       0.0720
     56 H          -6.9741   -1.3005   -6.5001 H       1  LIG11       0.0720
     57 H          -8.3673    2.2472   -6.1374 H       1  LIG11       0.0655
     58 H          -5.3658    4.0994   -9.6333 H       1  LIG11       0.0655
     59 H          -4.4327   -1.2078   -8.2347 H       1  LIG11       0.0591
     60 H          -4.6293   -2.2024   -6.7851 H       1  LIG11       0.0591
     61 H          -9.1299    2.4172   -8.4814 H       1  LIG11       0.0619
     62 H          -7.6155    3.3333  -10.2168 H       1  LIG11       0.0619
     63 H          -7.4851   -4.8081   -2.6491 H       1  LIG11       0.0831
     64 H          -6.3420   -2.6791    0.8677 H       1  LIG11       0.0831
     65 H          -7.1230   -4.8323   -0.1634 H       1  LIG11       0.0648
     66 H          -2.5170    4.8789   -7.4962 H       1  LIG11       0.0660
     67 H          -3.8664    5.4972   -8.4550 H       1  LIG11       0.0660
     68 H          -3.1512    3.8752   -8.8064 H       1  LIG11       0.0660
@<TRIPOS>BOND
     1     1     2    2
     2     1     3    2
     3     1     8    1
     4     1    20    1
     5     4    24    1
     6     4    27    1
     7     5    25    1
     8     5    29    1
     9     6    30    1
    10     6    39    1
    11     7    33    1
    12     8    23    1
    13     9    23   ar
    14     9    26   ar
    15    10    25   ar
    16    10    26   ar
    17    11    28   ar
    18    11    36   ar
    19    12    28   ar
    20    12    37   ar
    21    13    14    1
    22    13    15    1
    23    13    16    1
    24    13    17    1
    25    14    18   ar
    26    14    19   ar
    27    18    21   ar
    28    19    22   ar
    29    20    21   ar
    30    20    22   ar
    31    23    24   ar
    32    24    25   ar
    33    26    28    1
    34    27    30   ar
    35    27    31   ar
    36    29    33    1
    37    30    32   ar
    38    31    34   ar
    39    32    35   ar
    40    34    35   ar
    41    36    38   ar
    42    37    38   ar
    43     7    40    1
    44     8    41    1
    45    15    42    1
    46    15    43    1
    47    15    44    1
    48    16    45    1
    49    16    46    1
    50    16    47    1
    51    17    48    1
    52    17    49    1
    53    17    50    1
    54    18    51    1
    55    19    52    1
    56    21    53    1
    57    22    54    1
    58    29    55    1
    59    29    56    1
    60    31    57    1
    61    32    58    1
    62    33    59    1
    63    33    60    1
    64    34    61    1
    65    35    62    1
    66    36    63    1
    67    37    64    1
    68    38    65    1
    69    39    66    1
    70    39    67    1
    71    39    68    1
@<TRIPOS>MOLECULE
../1EDN/PCA3_17-21.pdb
 47 48 0 0 0
SMALL
GASTEIGER

@<TRIPOS>ATOM
      1  N         -4.2370    0.0490   -1.5930 N.3    17  LEU17      -0.1231
      2  CA        -5.5250   -0.5610   -1.9200 C.3    17  LEU17       0.1693
      3  CB        -5.7360   -1.8160   -1.1010 C.3    17  LEU17       0.0284
      4  CG        -6.9950   -2.5690   -1.5730 C.3    17  LEU17       0.0019
      5  CD1       -6.7530   -3.1800   -3.0080 C.3    17  LEU17       0.0001
      6  CD2       -7.2580   -3.7400   -0.6960 C.3    17  LEU17       0.0001
      7  C         -6.6810    0.4320   -1.9250 C.2    17  LEU17       0.2592
      8  O         -7.3270    0.6200   -2.9560 O.2    17  LEU17      -0.2718
      9  N         -6.9500    1.1080   -0.7900 N.am   18  ASP18      -0.1960
     10  CA        -8.0880    2.0070   -0.5710 C.3    18  ASP18       0.1840
     11  CB        -9.1090    1.3410    0.3760 C.3    18  ASP18       0.1450
     12  CG       -10.1470    2.2990    0.9520 C.2    18  ASP18       0.3671
     13  OD1      -11.0720    2.5310    0.1500 O.co2  18  ASP18      -0.2456
     14  OD2      -10.1960    2.6850    2.1610 O.co2  18  ASP18      -0.2456
     15  C         -7.6280    3.3500    0.0060 C.2    18  ASP18       0.2622
     16  O         -7.9950    4.4650   -0.3580 O.2    18  ASP18      -0.2715
     17  N         -6.8140    3.2050    1.0390 N.am   19  ILE19      -0.1963
     18  CA        -6.1800    4.3790    1.8160 C.3    19  ILE19       0.1727
     19  CB        -5.3140    3.8890    3.0670 C.3    19  ILE19       0.0290
     20  CG2       -4.6600    5.0630    3.8540 C.3    19  ILE19       0.0023
     21  CG1       -6.1440    2.9790    3.9890 C.3    19  ILE19       0.0022
     22  CD1       -5.5170    2.2940    5.2130 C.3    19  ILE19       0.0001
     23  C         -5.2670    5.2520    0.8640 C.2    19  ILE19       0.2616
     24  O         -5.3920    6.4650    0.9090 O.2    19  ILE19      -0.2715
     25  N         -4.4890    4.6060    0.0020 N.am   20  ILE20      -0.1963
     26  CA        -3.9690    5.2910   -1.1850 C.3    20  ILE20       0.1727
     27  CB        -2.4460    5.7340   -1.0120 C.3    20  ILE20       0.0290
     28  CG2       -2.3030    7.0110   -0.1100 C.3    20  ILE20       0.0023
     29  CG1       -1.4300    4.6170   -0.6100 C.3    20  ILE20       0.0022
     30  CD1        0.0800    4.9990   -0.7110 C.3    20  ILE20       0.0001
     31  C         -4.1660    4.3690   -2.4130 C.2    20  ILE20       0.2617
     32  O         -3.9200    3.1710   -2.5010 O.2    20  ILE20      -0.2715
     33  N         -4.6410    5.0460   -3.5090 N.am   21  TRP21      -0.1938
     34  CA        -4.8980    4.4430   -4.8120 C.3    21  TRP21       0.2021
     35  CB        -6.2680    3.7450   -4.8170 C.3    21  TRP21       0.0612
     36  CG        -6.5090    2.9660   -6.0890 C.ar   21  TRP21       0.0007
     37  CD1       -7.0550    3.4090   -7.2190 C.ar   21  TRP21       0.0946
     38  NE1       -7.1560    2.4190   -8.1260 N.ar   21  TRP21      -0.2442
     39  CE2       -6.6880    1.2600   -7.6470 C.ar   21  TRP21       0.0810
     40  CZ2       -6.5320   -0.1050   -8.0600 C.ar   21  TRP21       0.0191
     41  CH2       -5.9630   -1.0770   -7.2340 C.ar   21  TRP21       0.0015
     42  CZ3       -5.4330   -0.7150   -5.9030 C.ar   21  TRP21       0.0001
     43  CE3       -5.5290    0.6400   -5.5430 C.ar   21  TRP21       0.0012
     44  CD2       -6.2440    1.5830   -6.3190 C.ar   21  TRP21       0.0152
     45  C         -4.7460    5.5030   -5.9410 C.2    21  TRP21       0.3845
     46  O         -5.6740    6.3580   -6.0770 O.co2  21  TRP21      -0.2437
     47  OXT       -3.7150    5.4030   -6.6310 O.co2  21  TRP21      -0.2437
@<TRIPOS>BOND
     1    38    39   ar
     2    38    37   ar
     3    40    39   ar
     4    40    41   ar
     5    39    44   ar
     6    41    42   ar
     7    37    36   ar
     8    47    45   ar
     9    44    36   ar
    10    44    43   ar
    11    36    35    1
    12    46    45   ar
    13    45    34    1
    14    42    43   ar
    15    35    34    1
    16    34    33    1
    17    33    31   am
    18     5     4    1
    19     8     7    2
    20    32    31    2
    21    31    26    1
    22     7     2    1
    23     7     9   am
    24     2     1    1
    25     2     3    1
    26     4     3    1
    27     4     6    1
    28    26    27    1
    29    26    25    1
    30    27    29    1
    31    27    28    1
    32     9    10    1
    33    30    29    1
    34    10    15    1
    35    10    11    1
    36    16    15    2
    37    25    23   am
    38    15    17   am
    39    13    12   ar
    40    11    12    1
    41    23    24    2
    42    23    18    1
    43    12    14   ar
    44    17    18    1
    45    18    19    1
    46    19    20    1
    47    19    21    1
    48    21    22    1
