@<TRIPOS>MOLECULE
../1EDN/XRAY_17-21_NOBACKBONE.pdb
 26 23 0 0 0
SMALL
GASTEIGER

@<TRIPOS>ATOM
      1  CB         5.6570  -21.0170   -0.8850 C.3    17  LEU17       0.0000
      2  CG         5.4050  -22.5400   -0.8470 C.3    17  LEU17       0.0000
      3  CD1        6.1110  -23.2140    0.3150 C.3    17  LEU17       0.0000
      4  CD2        3.9240  -22.7940   -0.7690 C.3    17  LEU17       0.0000
      5  CB         3.8720  -17.2370    1.5730 C.3    18  ASP18       0.0476
      6  CG         2.4440  -17.7210    1.8880 C.2    18  ASP18       0.0507
      7  OD1        1.8320  -18.4410    1.0660 O.co2  18  ASP18      -0.5492
      8  OD2        1.9260  -17.3730    2.9700 O.co2  18  ASP18      -0.5492
      9  CB         7.9140  -14.3690   -1.8400 C.3    19  ILE19       0.0000
     10  CG1        8.8760  -14.8240   -0.7490 C.3    19  ILE19       0.0000
     11  CG2        8.2810  -12.9320   -2.2380 C.3    19  ILE19       0.0000
     12  CD1        9.3280  -13.7050    0.1860 C.3    19  ILE19       0.0000
     13  CB         5.8140  -13.8870   -5.9550 C.3    20  ILE20       0.0000
     14  CG1        5.9530  -12.3980   -5.6400 C.3    20  ILE20       0.0000
     15  CG2        5.1640  -14.0490   -7.3150 C.3    20  ILE20       0.0000
     16  CD1        6.8340  -11.6390   -6.6010 C.3    20  ILE20       0.0000
     17  CB         2.6690  -18.5180   -5.3120 C.3    21  TRP21       0.0327
     18  CG         1.5690  -17.9980   -4.3600 C.ar   21  TRP21      -0.0013
     19  CD1        0.7990  -18.7930   -3.5490 C.ar   21  TRP21       0.0946
     20  CD2        1.2480  -16.6350   -3.9890 C.ar   21  TRP21       0.0152
     21  CE2        0.3020  -16.7070   -2.9250 C.ar   21  TRP21       0.0810
     22  CE3        1.6680  -15.3700   -4.4360 C.ar   21  TRP21       0.0012
     23  NE1        0.0520  -18.0350   -2.6840 N.ar   21  TRP21      -0.2442
     24  CZ2       -0.2230  -15.5590   -2.2950 C.ar   21  TRP21       0.0191
     25  CZ3        1.1420  -14.2140   -3.8060 C.ar   21  TRP21       0.0001
     26  CH2        0.2070  -14.3240   -2.7450 C.ar   21  TRP21       0.0015
@<TRIPOS>BOND
     1    15    13    1
     2    16    14    1
     3    13    14    1
     4    17    18    1
     5    22    20   ar
     6    22    25   ar
     7    18    20   ar
     8    18    19   ar
     9    20    21   ar
    10    25    26   ar
    11    19    23   ar
    12    21    23   ar
    13    21    24   ar
    14    26    24   ar
    15    11     9    1
    16     9    10    1
    17     1     2    1
    18     2     4    1
    19     2     3    1
    20    10    12    1
    21     7     6   ar
    22     5     6    1
    23     6     8   ar
@<TRIPOS>MOLECULE
23693553
 97 99 0 0 0
SMALL
GASTEIGER

@<TRIPOS>ATOM
      1 O           4.9896  -17.8823   -0.1947 O.2     1  LIG11      -0.2526
      2 O           7.5755  -15.5468   -4.0805 O.2     1  LIG11      -0.2731
      3 O           4.1038  -17.5145   -2.8480 O.2     1  LIG11      -0.2689
      4 O           6.4591  -16.4754   -7.8334 O.co2   1  LIG11      -0.5479
      5 OXT         6.8072  -17.8375   -6.0276 O.co2   1  LIG11      -0.5479
      6 O          -0.2001  -20.2527   -1.7651 O.3     1  LIG11      -0.4515
      7 O          -1.0556  -18.2861   -0.9021 O.2     1  LIG11      -0.2227
      8 N           5.9018  -19.8795   -0.8284 N.am    1  LIG11      -0.2801
      9 N           6.6376  -17.8533   -1.7782 N.am    1  LIG11      -0.2879
     10 N           5.4188  -16.3191   -4.3098 N.am    1  LIG11      -0.2273
     11 N           4.2725  -19.7727   -4.3110 N.4     1  LIG11       0.2276
     12 N           0.3046  -18.2816   -2.7711 N.ar    1  LIG11      -0.2526
     13 C           6.9823  -20.6745   -1.4491 C.3     1  LIG11       0.0249
     14 C           4.8888  -20.5356    0.0354 C.3     1  LIG11       0.0249
     15 C           6.6743  -22.1737   -1.5923 C.3     1  LIG11      -0.0344
     16 C           4.6295  -22.0208   -0.2620 C.3     1  LIG11      -0.0344
     17 C           5.1836  -22.4534   -1.6049 C.3     1  LIG11      -0.0497
     18 CA          6.6897  -16.3945   -2.0425 C.3     1  LIG11       0.1019
     19 C           6.2156  -13.9367   -1.0891 C.3     1  LIG11      -0.0356
     20 C           5.8796  -15.4622   -1.1149 C.3     1  LIG11      -0.0210
     21 C           5.8181  -18.4797   -0.8752 C.2     1  LIG11       0.3033
     22 C           8.3208  -20.4924   -0.7262 C.3     1  LIG11      -0.0464
     23 C           5.1628  -20.3417    1.5334 C.3     1  LIG11      -0.0464
     24 C           6.5743  -16.0563   -3.5589 C.2     1  LIG11       0.2429
     25 C           7.7234  -13.6723   -0.9443 C.3     1  LIG11      -0.0600
     26 C           5.5027  -13.3232    0.1377 C.3     1  LIG11      -0.0600
     27 C           5.6939  -13.2113   -2.3357 C.3     1  LIG11      -0.0600
     28 CA          5.4668  -15.8925   -5.7420 C.3     1  LIG11       0.0730
     29 C           5.3456  -14.3683   -5.9233 C.3     1  LIG11      -0.0286
     30 C           4.5810  -17.3641   -3.9774 C.2     1  LIG11       0.2708
     31 CA          4.1561  -18.4402   -5.0229 C.3     1  LIG11       0.0579
     32 C           6.6065  -13.6043   -6.3230 C.3     1  LIG11      -0.0513
     33 C           2.7290  -18.2706   -5.5773 C.3     1  LIG11       0.0261
     34 C           6.4196  -16.7709   -6.6118 C.2     1  LIG11       0.0626
     35 C           1.6997  -18.0066   -4.5315 C.ar    1  LIG11      -0.0158
     36 C           6.4307  -12.0830   -6.2273 C.3     1  LIG11      -0.0558
     37 C           1.2316  -16.7238   -4.1229 C.ar    1  LIG11       0.0038
     38 C           1.0678  -18.9352   -3.7362 C.ar    1  LIG11       0.0202
     39 C           0.3840  -16.9103   -3.0259 C.ar    1  LIG11       0.0598
     40 C           5.3080  -11.5337   -7.0950 C.3     1  LIG11      -0.0653
     41 C           1.4972  -15.4112   -4.5731 C.ar    1  LIG11      -0.0523
     42 C          -0.1966  -15.8102   -2.3652 C.ar    1  LIG11      -0.0371
     43 C           0.9203  -14.3213   -3.9196 C.ar    1  LIG11      -0.0611
     44 C          -0.3964  -18.9101   -1.7179 C.2     1  LIG11       0.4196
     45 C           0.0867  -14.5216   -2.8276 C.ar    1  LIG11      -0.0598
     46 C          -0.8462  -20.9807   -0.7198 C.3     1  LIG11       0.0835
     47 H           7.4342  -18.3497   -2.1397 H       1  LIG11       0.1510
     48 H1          3.7880  -20.5338   -4.7873 H       1  LIG11       0.2002
     49 H2          5.2741  -19.9901   -4.2352 H       1  LIG11       0.2002
     50 H3          3.9124  -19.6355   -3.3510 H       1  LIG11       0.2002
     51 H           7.0960  -20.2897   -2.4699 H       1  LIG11       0.0498
     52 H           3.9405  -20.0217   -0.1795 H       1  LIG11       0.0498
     53 H           7.1369  -22.5564   -2.5100 H       1  LIG11       0.0283
     54 H           7.1305  -22.7375   -0.7674 H       1  LIG11       0.0283
     55 H           5.0760  -22.6480    0.5211 H       1  LIG11       0.0283
     56 H           3.5513  -22.2193   -0.2202 H       1  LIG11       0.0283
     57 H           4.6880  -21.9213   -2.4234 H       1  LIG11       0.0266
     58 H           5.0032  -23.5238   -1.7524 H       1  LIG11       0.0266
     59 HA          7.7440  -16.1927   -1.8062 H       1  LIG11       0.0595
     60 H           4.8078  -15.5797   -1.3134 H       1  LIG11       0.0293
     61 H           6.0496  -15.8116   -0.0877 H       1  LIG11       0.0293
     62 H           8.2639  -20.8551    0.3057 H       1  LIG11       0.0248
     63 H           9.1126  -21.0475   -1.2400 H       1  LIG11       0.0248
     64 H           8.6270  -19.4427   -0.6840 H       1  LIG11       0.0248
     65 H           6.1062  -20.8092    1.8275 H       1  LIG11       0.0248
     66 H           5.2164  -19.2861    1.8111 H       1  LIG11       0.0248
     67 H           4.3563  -20.7901    2.1273 H       1  LIG11       0.0248
     68 H           8.2796  -13.9839   -1.8341 H       1  LIG11       0.0235
     69 H           7.9235  -12.6035   -0.8028 H       1  LIG11       0.0235
     70 H           8.1382  -14.2043   -0.0811 H       1  LIG11       0.0235
     71 H           4.4206  -13.4881    0.0892 H       1  LIG11       0.0235
     72 H           5.8689  -13.7654    1.0713 H       1  LIG11       0.0235
     73 H           5.6730  -12.2420    0.1992 H       1  LIG11       0.0235
     74 H           4.6533  -13.4798   -2.5472 H       1  LIG11       0.0235
     75 H           5.7342  -12.1231   -2.2076 H       1  LIG11       0.0235
     76 H           6.2980  -13.4398   -3.2144 H       1  LIG11       0.0235
     77 HA          4.4942  -16.2169   -6.1331 H       1  LIG11       0.0567
     78 H           4.6018  -14.1959   -6.7138 H       1  LIG11       0.0287
     79 H           4.9065  -13.9274   -5.0210 H       1  LIG11       0.0287
     80 HA          4.8072  -18.5588   -5.8752 H       1  LIG11       0.0952
     81 H           7.4509  -13.8780   -5.6885 H       1  LIG11       0.0266
     82 H           6.8855  -13.8667   -7.3495 H       1  LIG11       0.0266
     83 H           2.7155  -17.4554   -6.3094 H       1  LIG11       0.0374
     84 H           2.4450  -19.1696   -6.1410 H       1  LIG11       0.0374
     85 H           6.2494  -11.7958   -5.1850 H       1  LIG11       0.0263
     86 H           7.3717  -11.6060   -6.5258 H       1  LIG11       0.0263
     87 H           1.1214  -20.0156   -3.7321 H       1  LIG11       0.0818
     88 H           4.3276  -11.8605   -6.7342 H       1  LIG11       0.0230
     89 H           5.3169  -10.4393   -7.0727 H       1  LIG11       0.0230
     90 H           5.4203  -11.8545   -8.1351 H       1  LIG11       0.0230
     91 H           2.1508  -15.2309   -5.4221 H       1  LIG11       0.0624
     92 H          -0.8423  -15.9407   -1.5012 H       1  LIG11       0.0638
     93 H           1.1326  -13.3121   -4.2635 H       1  LIG11       0.0618
     94 H          -0.3482  -13.6643   -2.3184 H       1  LIG11       0.0618
     95 H          -0.9356  -22.0227   -1.0389 H       1  LIG11       0.0661
     96 H          -0.2303  -20.9437    0.1832 H       1  LIG11       0.0661
     97 H          -1.8519  -20.5991   -0.5178 H       1  LIG11       0.0661
@<TRIPOS>BOND
     1     1    21    2
     2     2    24    2
     3     3    30    2
     4     4    34   ar
     5     5    34   ar
     6     6    44    1
     7     6    46    1
     8     7    44    2
     9     8    13    1
    10     8    14    1
    11     9    21   am
    12    10    24   am
    13    10    30   am
    14    12    39   ar
    15    12    38   ar
    16    12    44   am
    17    13    15    1
    18    13    22    1
    19    14    16    1
    20    14    23    1
    21    15    17    1
    22    16    17    1
    23    18     9    1
    24    18    24    1
    25    18    20    1
    26    19    20    1
    27    19    27    1
    28    19    26    1
    29    19    25    1
    30    21     8   am
    31    28    34    1
    32    28    29    1
    33    28    10    1
    34    29    32    1
    35    31    33    1
    36    31    11    1
    37    31    30    1
    38    32    36    1
    39    33    35    1
    40    35    38   ar
    41    35    37   ar
    42    36    40    1
    43    37    39   ar
    44    37    41   ar
    45    39    42   ar
    46    41    43   ar
    47    42    45   ar
    48    43    45   ar
    49     9    47    1
    50    11    48    1
    51    11    49    1
    52    11    50    1
    53    13    51    1
    54    14    52    1
    55    15    53    1
    56    15    54    1
    57    16    55    1
    58    16    56    1
    59    17    57    1
    60    17    58    1
    61    18    59    1
    62    20    60    1
    63    20    61    1
    64    22    62    1
    65    22    63    1
    66    22    64    1
    67    23    65    1
    68    23    66    1
    69    23    67    1
    70    25    68    1
    71    25    69    1
    72    25    70    1
    73    26    71    1
    74    26    72    1
    75    26    73    1
    76    27    74    1
    77    27    75    1
    78    27    76    1
    79    28    77    1
    80    29    78    1
    81    29    79    1
    82    31    80    1
    83    32    81    1
    84    32    82    1
    85    33    83    1
    86    33    84    1
    87    36    85    1
    88    36    86    1
    89    38    87    1
    90    40    88    1
    91    40    89    1
    92    40    90    1
    93    41    91    1
    94    42    92    1
    95    43    93    1
    96    45    94    1
    97    46    95    1
    98    46    96    1
    99    46    97    1
@<TRIPOS>MOLECULE
../1EDN/XRAY_17-21.pdb
 47 48 0 0 0
SMALL
GASTEIGER

@<TRIPOS>ATOM
      1  N          6.4500  -19.7300   -2.8460 N.3    17  LEU17      -0.1231
      2  CA         5.2640  -20.1680   -2.1160 C.3    17  LEU17       0.1693
      3  C          4.7010  -18.8060   -1.6720 C.2    17  LEU17       0.2592
      4  O          4.3760  -17.9800   -2.5270 O.2    17  LEU17      -0.2718
      5  CB         5.6570  -21.0170   -0.8850 C.3    17  LEU17       0.0284
      6  CG         5.4050  -22.5400   -0.8470 C.3    17  LEU17       0.0019
      7  CD1        6.1110  -23.2140    0.3150 C.3    17  LEU17       0.0001
      8  CD2        3.9240  -22.7940   -0.7690 C.3    17  LEU17       0.0001
      9  N          4.7270  -18.4910   -0.3800 N.am   18  ASP18      -0.1962
     10  CA         4.1720  -17.2010    0.0630 C.3    18  ASP18       0.1783
     11  C          4.7750  -15.8130   -0.3500 C.2    18  ASP18       0.2620
     12  O          4.1570  -14.7710   -0.0750 O.2    18  ASP18      -0.2715
     13  CB         3.8720  -17.2370    1.5730 C.3    18  ASP18       0.0728
     14  CG         2.4440  -17.7210    1.8880 C.2    18  ASP18       0.0526
     15  OD1        1.8320  -18.4410    1.0660 O.co2  18  ASP18      -0.5491
     16  OD2        1.9260  -17.3730    2.9700 O.co2  18  ASP18      -0.5491
     17  N          5.9570  -15.7420   -0.9630 N.am   19  ILE19      -0.1963
     18  CA         6.4450  -14.4030   -1.3510 C.3    19  ILE19       0.1727
     19  C          5.5760  -13.9960   -2.5290 C.2    19  ILE19       0.2616
     20  O          4.8370  -13.0080   -2.4770 O.2    19  ILE19      -0.2715
     21  CB         7.9140  -14.3690   -1.8400 C.3    19  ILE19       0.0290
     22  CG1        8.8760  -14.8240   -0.7490 C.3    19  ILE19       0.0022
     23  CG2        8.2810  -12.9320   -2.2380 C.3    19  ILE19       0.0023
     24  CD1        9.3280  -13.7050    0.1860 C.3    19  ILE19       0.0001
     25  N          5.7170  -14.7750   -3.5990 N.am   20  ILE20      -0.1963
     26  CA         4.9770  -14.6140   -4.8450 C.3    20  ILE20       0.1727
     27  C          4.7560  -16.0550   -5.2510 C.2    20  ILE20       0.2615
     28  O          5.5820  -16.9240   -4.9410 O.2    20  ILE20      -0.2715
     29  CB         5.8140  -13.8870   -5.9550 C.3    20  ILE20       0.0290
     30  CG1        5.9530  -12.3980   -5.6400 C.3    20  ILE20       0.0022
     31  CG2        5.1640  -14.0490   -7.3150 C.3    20  ILE20       0.0023
     32  CD1        6.8340  -11.6390   -6.6010 C.3    20  ILE20       0.0001
     33  N          3.6520  -16.3070   -5.9350 N.am   21  TRP21      -0.1988
     34  CA         3.3300  -17.6370   -6.4010 C.3    21  TRP21       0.1456
     35  C          2.5650  -17.6270   -7.7180 C.2    21  TRP21       0.1166
     36  O          1.8980  -18.6320   -8.0750 O.co2  21  TRP21      -0.3065
     37  CB         2.6690  -18.5180   -5.3120 C.3    21  TRP21       0.0562
     38  CG         1.5690  -17.9980   -4.3600 C.ar   21  TRP21       0.0005
     39  CD1        0.7990  -18.7930   -3.5490 C.ar   21  TRP21       0.0946
     40  CD2        1.2480  -16.6350   -3.9890 C.ar   21  TRP21       0.0152
     41  CE2        0.3020  -16.7070   -2.9250 C.ar   21  TRP21       0.0810
     42  CE3        1.6680  -15.3700   -4.4360 C.ar   21  TRP21       0.0012
     43  NE1        0.0520  -18.0350   -2.6840 N.ar   21  TRP21      -0.2442
     44  CZ2       -0.2230  -15.5590   -2.2950 C.ar   21  TRP21       0.0191
     45  CZ3        1.1420  -14.2140   -3.8060 C.ar   21  TRP21       0.0001
     46  CH2        0.2070  -14.3240   -2.7450 C.ar   21  TRP21       0.0015
     47  OXT        2.7400  -16.6140   -8.4280 O.co2  21  TRP21      -0.8460
@<TRIPOS>BOND
     1    47    35   ar
     2    36    35   ar
     3    35    34    1
     4    31    29    1
     5    32    30    1
     6    34    33    1
     7    34    37    1
     8    29    30    1
     9    29    26    1
    10    33    27   am
    11    37    38    1
    12    27    28    2
    13    27    26    1
    14    26    25    1
    15    42    40   ar
    16    42    45   ar
    17    38    40   ar
    18    38    39   ar
    19    40    41   ar
    20    45    46   ar
    21    25    19   am
    22    39    43   ar
    23    41    43   ar
    24    41    44   ar
    25     1     2    1
    26    46    44   ar
    27    19    20    2
    28    19    18    1
    29     4     3    2
    30    23    21    1
    31     2     3    1
    32     2     5    1
    33    21    18    1
    34    21    22    1
    35     3     9   am
    36    18    17    1
    37    17    11   am
    38     5     6    1
    39     6     8    1
    40     6     7    1
    41    22    24    1
    42     9    10    1
    43    11    12    2
    44    11    10    1
    45    10    13    1
    46    15    14   ar
    47    13    14    1
    48    14    16   ar
