@<TRIPOS>MOLECULE
../1EDN/XRAY_17-21_NOBACKBONE.pdb
 26 23 0 0 0
SMALL
GASTEIGER

@<TRIPOS>ATOM
      1  CB         5.6570  -21.0170   -0.8850 C.3    17  LEU17       0.0000
      2  CG         5.4050  -22.5400   -0.8470 C.3    17  LEU17       0.0000
      3  CD1        6.1110  -23.2140    0.3150 C.3    17  LEU17       0.0000
      4  CD2        3.9240  -22.7940   -0.7690 C.3    17  LEU17       0.0000
      5  CB         3.8720  -17.2370    1.5730 C.3    18  ASP18       0.0476
      6  CG         2.4440  -17.7210    1.8880 C.2    18  ASP18       0.0507
      7  OD1        1.8320  -18.4410    1.0660 O.co2  18  ASP18      -0.5492
      8  OD2        1.9260  -17.3730    2.9700 O.co2  18  ASP18      -0.5492
      9  CB         7.9140  -14.3690   -1.8400 C.3    19  ILE19       0.0000
     10  CG1        8.8760  -14.8240   -0.7490 C.3    19  ILE19       0.0000
     11  CG2        8.2810  -12.9320   -2.2380 C.3    19  ILE19       0.0000
     12  CD1        9.3280  -13.7050    0.1860 C.3    19  ILE19       0.0000
     13  CB         5.8140  -13.8870   -5.9550 C.3    20  ILE20       0.0000
     14  CG1        5.9530  -12.3980   -5.6400 C.3    20  ILE20       0.0000
     15  CG2        5.1640  -14.0490   -7.3150 C.3    20  ILE20       0.0000
     16  CD1        6.8340  -11.6390   -6.6010 C.3    20  ILE20       0.0000
     17  CB         2.6690  -18.5180   -5.3120 C.3    21  TRP21       0.0327
     18  CG         1.5690  -17.9980   -4.3600 C.ar   21  TRP21      -0.0013
     19  CD1        0.7990  -18.7930   -3.5490 C.ar   21  TRP21       0.0946
     20  CD2        1.2480  -16.6350   -3.9890 C.ar   21  TRP21       0.0152
     21  CE2        0.3020  -16.7070   -2.9250 C.ar   21  TRP21       0.0810
     22  CE3        1.6680  -15.3700   -4.4360 C.ar   21  TRP21       0.0012
     23  NE1        0.0520  -18.0350   -2.6840 N.ar   21  TRP21      -0.2442
     24  CZ2       -0.2230  -15.5590   -2.2950 C.ar   21  TRP21       0.0191
     25  CZ3        1.1420  -14.2140   -3.8060 C.ar   21  TRP21       0.0001
     26  CH2        0.2070  -14.3240   -2.7450 C.ar   21  TRP21       0.0015
@<TRIPOS>BOND
     1    15    13    1
     2    16    14    1
     3    13    14    1
     4    17    18    1
     5    22    20   ar
     6    22    25   ar
     7    18    20   ar
     8    18    19   ar
     9    20    21   ar
    10    25    26   ar
    11    19    23   ar
    12    21    23   ar
    13    21    24   ar
    14    26    24   ar
    15    11     9    1
    16     9    10    1
    17     1     2    1
    18     2     4    1
    19     2     3    1
    20    10    12    1
    21     7     6   ar
    22     5     6    1
    23     6     8   ar
@<TRIPOS>MOLECULE
01012527H
 86 88 0 0 0
SMALL
GASTEIGER

@<TRIPOS>ATOM
      1 C           1.3695  -18.0127   -3.7967 C.3     1  LIG11       0.0531
      2 C           1.7139  -16.5483   -4.0403 C.3     1  LIG11      -0.0111
      3 C           2.4262  -18.6157   -2.8683 C.3     1  LIG11       0.0375
      4 C           1.5408  -18.5308   -5.2226 C.2     1  LIG11       0.0509
      5 N           3.0134  -16.2940   -3.3003 N.4     1  LIG11       0.2448
      6 C           0.6233  -15.4774   -3.7826 C.3     1  LIG11      -0.0039
      7 C           1.8654  -18.8681   -1.4740 C.ar    1  LIG11      -0.0313
      8 C           3.6164  -17.6683   -3.0180 C.3     1  LIG11      -0.0234
      9 O           2.7303  -18.7762   -5.5650 O.co2   1  LIG11      -0.5493
     10 O           0.4872  -18.5057   -5.9071 O.co2   1  LIG11      -0.5493
     11 C           3.9651  -15.4135   -4.1105 C.3     1  LIG11       0.0465
     12 C          -0.0621  -15.1639   -2.4168 C.3     1  LIG11      -0.0298
     13 C           0.8941  -19.8800   -1.3425 C.ar    1  LIG11      -0.0122
     14 C           2.2409  -18.1526   -0.3170 C.ar    1  LIG11      -0.0124
     15 C           5.2438  -15.0489   -3.3514 C.2     1  LIG11       0.2608
     16 C          -1.0434  -13.9521   -2.6083 C.3     1  LIG11      -0.0479
     17 C           0.9501  -14.7158   -1.3469 C.3     1  LIG11      -0.0596
     18 C          -0.8614  -16.3560   -1.8746 C.3     1  LIG11      -0.0596
     19 C           0.3240  -20.1049   -0.1063 C.ar    1  LIG11       0.1702
     20 C           1.6257  -18.3774    0.9302 C.ar    1  LIG11       0.1656
     21 N           6.2672  -14.4146   -4.0497 N.am    1  LIG11      -0.2971
     22 O           5.3335  -15.3306   -2.1511 O.2     1  LIG11      -0.2697
     23 C          -2.2318  -14.1797   -3.5515 C.3     1  LIG11      -0.0554
     24 C           0.6685  -19.3727    1.0068 C.ar    1  LIG11       0.2075
     25 O          -0.6314  -21.0400    0.1467 O.3     1  LIG11      -0.4525
     26 O           2.0625  -17.5536    1.9288 O.3     1  LIG11      -0.4913
     27 C           6.1755  -13.9510   -5.4452 C.3     1  LIG11       0.0148
     28 C           7.5584  -14.2566   -3.3698 C.3     1  LIG11       0.0148
     29 C          -3.1581  -12.9712   -3.5696 C.3     1  LIG11      -0.0653
     30 O          -0.0401  -19.7730    2.1001 O.3     1  LIG11      -0.4489
     31 C          -0.8502  -20.8301    1.5513 C.3     1  LIG11       0.2334
     32 C           1.2999  -17.5423    3.1302 C.3     1  LIG11       0.0790
     33 C           6.4134  -12.4448   -5.5883 C.3     1  LIG11      -0.0374
     34 C           7.5659  -13.1002   -2.3663 C.3     1  LIG11      -0.0374
     35 C           6.2013  -11.9728   -7.0266 C.3     1  LIG11      -0.0545
     36 C           8.9511  -12.8262   -1.7773 C.3     1  LIG11      -0.0545
     37 C           6.5210  -10.4931   -7.1769 C.3     1  LIG11      -0.0652
     38 C           9.5204  -13.9984   -0.9927 C.3     1  LIG11      -0.0652
     39 H           0.3359  -18.1828   -3.4863 H       1  LIG11       0.0424
     40 H           1.9724  -16.3716   -5.0954 H       1  LIG11       0.0858
     41 H           2.7577  -19.6060   -3.2116 H       1  LIG11       0.0409
     42 H           2.8718  -15.8490   -2.3923 H       1  LIG11       0.2042
     43 H           1.0351  -14.5263   -4.1510 H       1  LIG11       0.0325
     44 H          -0.1764  -15.7285   -4.4924 H       1  LIG11       0.0325
     45 H           4.2538  -17.5978   -2.1339 H       1  LIG11       0.0821
     46 H           4.2453  -17.9351   -3.8731 H       1  LIG11       0.0821
     47 H           4.2087  -15.9623   -5.0260 H       1  LIG11       0.0913
     48 H           3.4210  -14.4917   -4.3369 H       1  LIG11       0.0913
     49 H           0.5748  -20.4712   -2.1981 H       1  LIG11       0.0658
     50 H           3.0012  -17.3771   -0.3543 H       1  LIG11       0.0658
     51 H          -1.4444  -13.6643   -1.6262 H       1  LIG11       0.0270
     52 H          -0.4734  -13.0834   -2.9654 H       1  LIG11       0.0270
     53 H           1.5508  -15.5463   -0.9778 H       1  LIG11       0.0235
     54 H           1.6230  -13.9428   -1.7342 H       1  LIG11       0.0235
     55 H           0.4421  -14.2993   -0.4688 H       1  LIG11       0.0235
     56 H          -0.2069  -17.1320   -1.4850 H       1  LIG11       0.0235
     57 H          -1.5121  -16.0528   -1.0460 H       1  LIG11       0.0235
     58 H          -1.4917  -16.8097   -2.6459 H       1  LIG11       0.0235
     59 H          -1.8837  -14.3648   -4.5723 H       1  LIG11       0.0263
     60 H          -2.8134  -15.0518   -3.2370 H       1  LIG11       0.0263
     61 H           6.9171  -14.5129   -6.0253 H       1  LIG11       0.0464
     62 H           5.1954  -14.1914   -5.8632 H       1  LIG11       0.0464
     63 H           7.7749  -15.1985   -2.8522 H       1  LIG11       0.0464
     64 H           8.3422  -14.1226   -4.1243 H       1  LIG11       0.0464
     65 H          -2.6303  -12.0766   -3.9144 H       1  LIG11       0.0230
     66 H          -4.0012  -13.1510   -4.2440 H       1  LIG11       0.0230
     67 H          -3.5606  -12.7709   -2.5712 H       1  LIG11       0.0230
     68 H          -1.9059  -20.5820    1.7106 H       1  LIG11       0.1166
     69 H          -0.6244  -21.7597    2.0864 H       1  LIG11       0.1166
     70 H           1.6879  -16.7364    3.7610 H       1  LIG11       0.0660
     71 H           0.2448  -17.3226    2.9341 H       1  LIG11       0.0660
     72 H           1.4228  -18.4787    3.6829 H       1  LIG11       0.0660
     73 H           5.7351  -11.9004   -4.9198 H       1  LIG11       0.0280
     74 H           7.4349  -12.1970   -5.2772 H       1  LIG11       0.0280
     75 H           7.2117  -12.1839   -2.8519 H       1  LIG11       0.0280
     76 H           6.8597  -13.3022   -1.5526 H       1  LIG11       0.0280
     77 H           6.8386  -12.5483   -7.7078 H       1  LIG11       0.0263
     78 H           5.1618  -12.1491   -7.3259 H       1  LIG11       0.0263
     79 H           9.6479  -12.5521   -2.5781 H       1  LIG11       0.0263
     80 H           8.8790  -11.9594   -1.1097 H       1  LIG11       0.0263
     81 H           7.5697  -10.2930   -6.9341 H       1  LIG11       0.0230
     82 H           6.3444  -10.1687   -8.2071 H       1  LIG11       0.0230
     83 H           5.8941   -9.8858   -6.5163 H       1  LIG11       0.0230
     84 H           9.7497  -14.8439   -1.6481 H       1  LIG11       0.0230
     85 H          10.4510  -13.7030   -0.4980 H       1  LIG11       0.0230
     86 H           8.8186  -14.3360   -0.2237 H       1  LIG11       0.0230
@<TRIPOS>BOND
     1     1     2    1
     2     1     3    1
     3     1     4    1
     4     2     5    1
     5     2     6    1
     6     3     8    1
     7     3     7    1
     8     4    10   ar
     9     4     9   ar
    10     5     8    1
    11     5    11    1
    12     6    12    1
    13     7    14   ar
    14     7    13   ar
    15    11    15    1
    16    12    18    1
    17    12    17    1
    18    12    16    1
    19    13    19   ar
    20    14    20   ar
    21    15    22    2
    22    15    21   am
    23    16    23    1
    24    19    25    1
    25    19    24   ar
    26    20    24   ar
    27    20    26    1
    28    21    28    1
    29    21    27    1
    30    23    29    1
    31    24    30    1
    32    25    31    1
    33    26    32    1
    34    27    33    1
    35    28    34    1
    36    30    31    1
    37    33    35    1
    38    34    36    1
    39    35    37    1
    40    36    38    1
    41     1    39    1
    42     2    40    1
    43     3    41    1
    44     5    42    1
    45     6    43    1
    46     6    44    1
    47     8    45    1
    48     8    46    1
    49    11    47    1
    50    11    48    1
    51    13    49    1
    52    14    50    1
    53    16    51    1
    54    16    52    1
    55    17    53    1
    56    17    54    1
    57    17    55    1
    58    18    56    1
    59    18    57    1
    60    18    58    1
    61    23    59    1
    62    23    60    1
    63    27    61    1
    64    27    62    1
    65    28    63    1
    66    28    64    1
    67    29    65    1
    68    29    66    1
    69    29    67    1
    70    31    68    1
    71    31    69    1
    72    32    70    1
    73    32    71    1
    74    32    72    1
    75    33    73    1
    76    33    74    1
    77    34    75    1
    78    34    76    1
    79    35    77    1
    80    35    78    1
    81    36    79    1
    82    36    80    1
    83    37    81    1
    84    37    82    1
    85    37    83    1
    86    38    84    1
    87    38    85    1
    88    38    86    1
@<TRIPOS>MOLECULE
../1EDN/XRAY_17-21.pdb
 47 48 0 0 0
SMALL
GASTEIGER

@<TRIPOS>ATOM
      1  N          6.4500  -19.7300   -2.8460 N.3    17  LEU17      -0.1231
      2  CA         5.2640  -20.1680   -2.1160 C.3    17  LEU17       0.1693
      3  C          4.7010  -18.8060   -1.6720 C.2    17  LEU17       0.2592
      4  O          4.3760  -17.9800   -2.5270 O.2    17  LEU17      -0.2718
      5  CB         5.6570  -21.0170   -0.8850 C.3    17  LEU17       0.0284
      6  CG         5.4050  -22.5400   -0.8470 C.3    17  LEU17       0.0019
      7  CD1        6.1110  -23.2140    0.3150 C.3    17  LEU17       0.0001
      8  CD2        3.9240  -22.7940   -0.7690 C.3    17  LEU17       0.0001
      9  N          4.7270  -18.4910   -0.3800 N.am   18  ASP18      -0.1962
     10  CA         4.1720  -17.2010    0.0630 C.3    18  ASP18       0.1783
     11  C          4.7750  -15.8130   -0.3500 C.2    18  ASP18       0.2620
     12  O          4.1570  -14.7710   -0.0750 O.2    18  ASP18      -0.2715
     13  CB         3.8720  -17.2370    1.5730 C.3    18  ASP18       0.0728
     14  CG         2.4440  -17.7210    1.8880 C.2    18  ASP18       0.0526
     15  OD1        1.8320  -18.4410    1.0660 O.co2  18  ASP18      -0.5491
     16  OD2        1.9260  -17.3730    2.9700 O.co2  18  ASP18      -0.5491
     17  N          5.9570  -15.7420   -0.9630 N.am   19  ILE19      -0.1963
     18  CA         6.4450  -14.4030   -1.3510 C.3    19  ILE19       0.1727
     19  C          5.5760  -13.9960   -2.5290 C.2    19  ILE19       0.2616
     20  O          4.8370  -13.0080   -2.4770 O.2    19  ILE19      -0.2715
     21  CB         7.9140  -14.3690   -1.8400 C.3    19  ILE19       0.0290
     22  CG1        8.8760  -14.8240   -0.7490 C.3    19  ILE19       0.0022
     23  CG2        8.2810  -12.9320   -2.2380 C.3    19  ILE19       0.0023
     24  CD1        9.3280  -13.7050    0.1860 C.3    19  ILE19       0.0001
     25  N          5.7170  -14.7750   -3.5990 N.am   20  ILE20      -0.1963
     26  CA         4.9770  -14.6140   -4.8450 C.3    20  ILE20       0.1727
     27  C          4.7560  -16.0550   -5.2510 C.2    20  ILE20       0.2615
     28  O          5.5820  -16.9240   -4.9410 O.2    20  ILE20      -0.2715
     29  CB         5.8140  -13.8870   -5.9550 C.3    20  ILE20       0.0290
     30  CG1        5.9530  -12.3980   -5.6400 C.3    20  ILE20       0.0022
     31  CG2        5.1640  -14.0490   -7.3150 C.3    20  ILE20       0.0023
     32  CD1        6.8340  -11.6390   -6.6010 C.3    20  ILE20       0.0001
     33  N          3.6520  -16.3070   -5.9350 N.am   21  TRP21      -0.1988
     34  CA         3.3300  -17.6370   -6.4010 C.3    21  TRP21       0.1456
     35  C          2.5650  -17.6270   -7.7180 C.2    21  TRP21       0.1166
     36  O          1.8980  -18.6320   -8.0750 O.co2  21  TRP21      -0.3065
     37  CB         2.6690  -18.5180   -5.3120 C.3    21  TRP21       0.0562
     38  CG         1.5690  -17.9980   -4.3600 C.ar   21  TRP21       0.0005
     39  CD1        0.7990  -18.7930   -3.5490 C.ar   21  TRP21       0.0946
     40  CD2        1.2480  -16.6350   -3.9890 C.ar   21  TRP21       0.0152
     41  CE2        0.3020  -16.7070   -2.9250 C.ar   21  TRP21       0.0810
     42  CE3        1.6680  -15.3700   -4.4360 C.ar   21  TRP21       0.0012
     43  NE1        0.0520  -18.0350   -2.6840 N.ar   21  TRP21      -0.2442
     44  CZ2       -0.2230  -15.5590   -2.2950 C.ar   21  TRP21       0.0191
     45  CZ3        1.1420  -14.2140   -3.8060 C.ar   21  TRP21       0.0001
     46  CH2        0.2070  -14.3240   -2.7450 C.ar   21  TRP21       0.0015
     47  OXT        2.7400  -16.6140   -8.4280 O.co2  21  TRP21      -0.8460
@<TRIPOS>BOND
     1    47    35   ar
     2    36    35   ar
     3    35    34    1
     4    31    29    1
     5    32    30    1
     6    34    33    1
     7    34    37    1
     8    29    30    1
     9    29    26    1
    10    33    27   am
    11    37    38    1
    12    27    28    2
    13    27    26    1
    14    26    25    1
    15    42    40   ar
    16    42    45   ar
    17    38    40   ar
    18    38    39   ar
    19    40    41   ar
    20    45    46   ar
    21    25    19   am
    22    39    43   ar
    23    41    43   ar
    24    41    44   ar
    25     1     2    1
    26    46    44   ar
    27    19    20    2
    28    19    18    1
    29     4     3    2
    30    23    21    1
    31     2     3    1
    32     2     5    1
    33    21    18    1
    34    21    22    1
    35     3     9   am
    36    18    17    1
    37    17    11   am
    38     5     6    1
    39     6     8    1
    40     6     7    1
    41    22    24    1
    42     9    10    1
    43    11    12    2
    44    11    10    1
    45    10    13    1
    46    15    14   ar
    47    13    14    1
    48    14    16   ar
