@<TRIPOS>MOLECULE
../1EDN/XRAY_17-21_NOBACKBONE.pdb
 26 23 0 0 0
SMALL
GASTEIGER

@<TRIPOS>ATOM
      1  CB         5.6570  -21.0170   -0.8850 C.3    17  LEU17       0.0000
      2  CG         5.4050  -22.5400   -0.8470 C.3    17  LEU17       0.0000
      3  CD1        6.1110  -23.2140    0.3150 C.3    17  LEU17       0.0000
      4  CD2        3.9240  -22.7940   -0.7690 C.3    17  LEU17       0.0000
      5  CB         3.8720  -17.2370    1.5730 C.3    18  ASP18       0.0476
      6  CG         2.4440  -17.7210    1.8880 C.2    18  ASP18       0.0507
      7  OD1        1.8320  -18.4410    1.0660 O.co2  18  ASP18      -0.5492
      8  OD2        1.9260  -17.3730    2.9700 O.co2  18  ASP18      -0.5492
      9  CB         7.9140  -14.3690   -1.8400 C.3    19  ILE19       0.0000
     10  CG1        8.8760  -14.8240   -0.7490 C.3    19  ILE19       0.0000
     11  CG2        8.2810  -12.9320   -2.2380 C.3    19  ILE19       0.0000
     12  CD1        9.3280  -13.7050    0.1860 C.3    19  ILE19       0.0000
     13  CB         5.8140  -13.8870   -5.9550 C.3    20  ILE20       0.0000
     14  CG1        5.9530  -12.3980   -5.6400 C.3    20  ILE20       0.0000
     15  CG2        5.1640  -14.0490   -7.3150 C.3    20  ILE20       0.0000
     16  CD1        6.8340  -11.6390   -6.6010 C.3    20  ILE20       0.0000
     17  CB         2.6690  -18.5180   -5.3120 C.3    21  TRP21       0.0327
     18  CG         1.5690  -17.9980   -4.3600 C.ar   21  TRP21      -0.0013
     19  CD1        0.7990  -18.7930   -3.5490 C.ar   21  TRP21       0.0946
     20  CD2        1.2480  -16.6350   -3.9890 C.ar   21  TRP21       0.0152
     21  CE2        0.3020  -16.7070   -2.9250 C.ar   21  TRP21       0.0810
     22  CE3        1.6680  -15.3700   -4.4360 C.ar   21  TRP21       0.0012
     23  NE1        0.0520  -18.0350   -2.6840 N.ar   21  TRP21      -0.2442
     24  CZ2       -0.2230  -15.5590   -2.2950 C.ar   21  TRP21       0.0191
     25  CZ3        1.1420  -14.2140   -3.8060 C.ar   21  TRP21       0.0001
     26  CH2        0.2070  -14.3240   -2.7450 C.ar   21  TRP21       0.0015
@<TRIPOS>BOND
     1    15    13    1
     2    16    14    1
     3    13    14    1
     4    17    18    1
     5    22    20   ar
     6    22    25   ar
     7    18    20   ar
     8    18    19   ar
     9    20    21   ar
    10    25    26   ar
    11    19    23   ar
    12    21    23   ar
    13    21    24   ar
    14    26    24   ar
    15    11     9    1
    16     9    10    1
    17     1     2    1
    18     2     4    1
    19     2     3    1
    20    10    12    1
    21     7     6   ar
    22     5     6    1
    23     6     8   ar
@<TRIPOS>MOLECULE
178103
 66 70 0 0 0
SMALL
GASTEIGER

@<TRIPOS>ATOM
      1 O           3.4651  -19.0735   -4.2007 O.co2   1  LIG11      -0.5495
      2 O           1.4383  -18.8073   -5.2057 O.co2   1  LIG11      -0.5495
      3 O          -2.2631  -13.6758   -1.8764 O.3     1  LIG11      -0.4920
      4 O          -0.2215  -18.7725   -0.9451 O.3     1  LIG11      -0.4893
      5 O           6.0021  -13.1810   -4.5025 O.3     1  LIG11      -0.4526
      6 O           6.1623  -12.8920   -6.8925 O.3     1  LIG11      -0.4526
      7 O           2.8542  -17.9560    2.6261 O.3     1  LIG11      -0.4950
      8 O          -2.1298  -20.7796   -1.7147 O.3     1  LIG11      -0.3917
      9 C           2.2913  -17.0679   -3.8277 C.3     1  LIG11       0.0203
     10 C           1.1501  -17.1374   -2.7736 C.3     1  LIG11       0.0218
     11 C           1.8947  -16.0102   -4.8847 C.3     1  LIG11       0.0184
     12 C           0.4286  -15.8241   -2.9909 C.ar    1  LIG11      -0.0320
     13 C           0.8611  -15.1841   -4.1522 C.ar    1  LIG11      -0.0353
     14 C           1.6078  -17.3254   -1.3246 C.ar    1  LIG11       0.0025
     15 C           3.0505  -15.1794   -5.4331 C.ar    1  LIG11      -0.0356
     16 C           2.4018  -18.4464   -4.4745 C.2     1  LIG11       0.0466
     17 C          -0.6177  -15.2969   -2.2406 C.ar    1  LIG11      -0.0159
     18 C           0.2787  -13.9904   -4.5620 C.ar    1  LIG11      -0.0542
     19 C           0.8999  -18.1665   -0.4411 C.ar    1  LIG11       0.1278
     20 C          -1.2311  -14.1148   -2.6616 C.ar    1  LIG11       0.1208
     21 C           3.9928  -14.5605   -4.5921 C.ar    1  LIG11      -0.0124
     22 C          -0.7602  -13.4468   -3.8002 C.ar    1  LIG11      -0.0196
     23 C           3.1588  -14.9951   -6.8351 C.ar    1  LIG11      -0.0543
     24 C           2.7140  -16.6173   -0.8196 C.ar    1  LIG11      -0.0510
     25 C           5.0043  -13.8215   -5.1695 C.ar    1  LIG11       0.1665
     26 C           4.1841  -14.2242   -7.3924 C.ar    1  LIG11      -0.0159
     27 C           1.3560  -18.3454    0.8722 C.ar    1  LIG11       0.0221
     28 C           3.1600  -16.7982    0.4915 C.ar    1  LIG11      -0.0194
     29 C           5.0962  -13.6574   -6.5318 C.ar    1  LIG11       0.1662
     30 C           2.4978  -17.6865    1.3308 C.ar    1  LIG11       0.1236
     31 C          -3.3435  -13.0326   -2.5555 C.3     1  LIG11       0.0893
     32 C           6.7662  -12.6569   -5.6051 C.3     1  LIG11       0.2332
     33 C          -1.1269  -19.3675   -0.0145 C.3     1  LIG11       0.1126
     34 C          -3.3727  -11.5458   -2.2109 C.3     1  LIG11      -0.0215
     35 C          -2.3942  -19.7371   -0.7782 C.3     1  LIG11       0.0783
     36 C           4.2450  -17.8269    2.9030 C.3     1  LIG11       0.0788
     37 C          -3.6124  -11.3060   -0.7268 C.3     1  LIG11      -0.0622
     38 H          -1.3760  -20.4679   -2.2589 H       1  LIG11       0.2095
     39 H           3.2623  -16.8389   -3.3790 H       1  LIG11       0.0379
     40 H           0.4473  -17.9355   -3.0427 H       1  LIG11       0.0405
     41 H           1.3742  -16.4744   -5.7316 H       1  LIG11       0.0404
     42 H          -0.9766  -15.8158   -1.3578 H       1  LIG11       0.0657
     43 H           0.6132  -13.4951   -5.4678 H       1  LIG11       0.0622
     44 H           3.9398  -14.6608   -3.5144 H       1  LIG11       0.0658
     45 H          -1.1935  -12.5056   -4.1189 H       1  LIG11       0.0654
     46 H           2.4340  -15.4685   -7.4950 H       1  LIG11       0.0622
     47 H           3.2466  -15.9111   -1.4508 H       1  LIG11       0.0623
     48 H           4.2631  -14.0902   -8.4634 H       1  LIG11       0.0655
     49 H           0.8540  -19.0173    1.5586 H       1  LIG11       0.0691
     50 H           4.0211  -16.2296    0.8230 H       1  LIG11       0.0654
     51 H          -3.3245  -13.1845   -3.6419 H       1  LIG11       0.0696
     52 H          -4.2675  -13.5066   -2.2036 H       1  LIG11       0.0696
     53 H           6.8833  -11.5757   -5.4664 H       1  LIG11       0.1166
     54 H           7.7615  -13.1189   -5.5956 H       1  LIG11       0.1166
     55 H          -0.6738  -20.2732    0.4050 H       1  LIG11       0.0720
     56 H          -1.3849  -18.6562    0.7790 H       1  LIG11       0.0720
     57 H          -2.4210  -11.0785   -2.4878 H       1  LIG11       0.0295
     58 H          -4.1648  -11.0555   -2.7870 H       1  LIG11       0.0295
     59 H          -2.7853  -18.8788   -1.3339 H       1  LIG11       0.0591
     60 H          -3.1648  -20.0948   -0.0892 H       1  LIG11       0.0591
     61 H           4.4368  -18.3000    3.8714 H       1  LIG11       0.0660
     62 H           4.8565  -18.3430    2.1541 H       1  LIG11       0.0660
     63 H           4.5301  -16.7737    2.9858 H       1  LIG11       0.0660
     64 H          -2.8154  -11.7433   -0.1181 H       1  LIG11       0.0231
     65 H          -3.6458  -10.2323   -0.5179 H       1  LIG11       0.0231
     66 H          -4.5655  -11.7426   -0.4100 H       1  LIG11       0.0231
@<TRIPOS>BOND
     1     1    16   ar
     2     2    16   ar
     3     3    20    1
     4     3    31    1
     5     4    19    1
     6     4    33    1
     7     5    25    1
     8     5    32    1
     9     6    29    1
    10     6    32    1
    11     7    30    1
    12     7    36    1
    13     8    35    1
    14     9    10    1
    15     9    11    1
    16     9    16    1
    17    10    12    1
    18    10    14    1
    19    11    13    1
    20    11    15    1
    21    12    13   ar
    22    12    17   ar
    23    13    18   ar
    24    14    19   ar
    25    14    24   ar
    26    15    21   ar
    27    15    23   ar
    28    17    20   ar
    29    18    22   ar
    30    19    27   ar
    31    20    22   ar
    32    21    25   ar
    33    23    26   ar
    34    24    28   ar
    35    25    29   ar
    36    26    29   ar
    37    27    30   ar
    38    28    30   ar
    39    31    34    1
    40    33    35    1
    41    34    37    1
    42     8    38    1
    43     9    39    1
    44    10    40    1
    45    11    41    1
    46    17    42    1
    47    18    43    1
    48    21    44    1
    49    22    45    1
    50    23    46    1
    51    24    47    1
    52    26    48    1
    53    27    49    1
    54    28    50    1
    55    31    51    1
    56    31    52    1
    57    32    53    1
    58    32    54    1
    59    33    55    1
    60    33    56    1
    61    34    57    1
    62    34    58    1
    63    35    59    1
    64    35    60    1
    65    36    61    1
    66    36    62    1
    67    36    63    1
    68    37    64    1
    69    37    65    1
    70    37    66    1
@<TRIPOS>MOLECULE
../1EDN/XRAY_17-21.pdb
 47 48 0 0 0
SMALL
GASTEIGER

@<TRIPOS>ATOM
      1  N          6.4500  -19.7300   -2.8460 N.3    17  LEU17      -0.1231
      2  CA         5.2640  -20.1680   -2.1160 C.3    17  LEU17       0.1693
      3  C          4.7010  -18.8060   -1.6720 C.2    17  LEU17       0.2592
      4  O          4.3760  -17.9800   -2.5270 O.2    17  LEU17      -0.2718
      5  CB         5.6570  -21.0170   -0.8850 C.3    17  LEU17       0.0284
      6  CG         5.4050  -22.5400   -0.8470 C.3    17  LEU17       0.0019
      7  CD1        6.1110  -23.2140    0.3150 C.3    17  LEU17       0.0001
      8  CD2        3.9240  -22.7940   -0.7690 C.3    17  LEU17       0.0001
      9  N          4.7270  -18.4910   -0.3800 N.am   18  ASP18      -0.1962
     10  CA         4.1720  -17.2010    0.0630 C.3    18  ASP18       0.1783
     11  C          4.7750  -15.8130   -0.3500 C.2    18  ASP18       0.2620
     12  O          4.1570  -14.7710   -0.0750 O.2    18  ASP18      -0.2715
     13  CB         3.8720  -17.2370    1.5730 C.3    18  ASP18       0.0728
     14  CG         2.4440  -17.7210    1.8880 C.2    18  ASP18       0.0526
     15  OD1        1.8320  -18.4410    1.0660 O.co2  18  ASP18      -0.5491
     16  OD2        1.9260  -17.3730    2.9700 O.co2  18  ASP18      -0.5491
     17  N          5.9570  -15.7420   -0.9630 N.am   19  ILE19      -0.1963
     18  CA         6.4450  -14.4030   -1.3510 C.3    19  ILE19       0.1727
     19  C          5.5760  -13.9960   -2.5290 C.2    19  ILE19       0.2616
     20  O          4.8370  -13.0080   -2.4770 O.2    19  ILE19      -0.2715
     21  CB         7.9140  -14.3690   -1.8400 C.3    19  ILE19       0.0290
     22  CG1        8.8760  -14.8240   -0.7490 C.3    19  ILE19       0.0022
     23  CG2        8.2810  -12.9320   -2.2380 C.3    19  ILE19       0.0023
     24  CD1        9.3280  -13.7050    0.1860 C.3    19  ILE19       0.0001
     25  N          5.7170  -14.7750   -3.5990 N.am   20  ILE20      -0.1963
     26  CA         4.9770  -14.6140   -4.8450 C.3    20  ILE20       0.1727
     27  C          4.7560  -16.0550   -5.2510 C.2    20  ILE20       0.2615
     28  O          5.5820  -16.9240   -4.9410 O.2    20  ILE20      -0.2715
     29  CB         5.8140  -13.8870   -5.9550 C.3    20  ILE20       0.0290
     30  CG1        5.9530  -12.3980   -5.6400 C.3    20  ILE20       0.0022
     31  CG2        5.1640  -14.0490   -7.3150 C.3    20  ILE20       0.0023
     32  CD1        6.8340  -11.6390   -6.6010 C.3    20  ILE20       0.0001
     33  N          3.6520  -16.3070   -5.9350 N.am   21  TRP21      -0.1988
     34  CA         3.3300  -17.6370   -6.4010 C.3    21  TRP21       0.1456
     35  C          2.5650  -17.6270   -7.7180 C.2    21  TRP21       0.1166
     36  O          1.8980  -18.6320   -8.0750 O.co2  21  TRP21      -0.3065
     37  CB         2.6690  -18.5180   -5.3120 C.3    21  TRP21       0.0562
     38  CG         1.5690  -17.9980   -4.3600 C.ar   21  TRP21       0.0005
     39  CD1        0.7990  -18.7930   -3.5490 C.ar   21  TRP21       0.0946
     40  CD2        1.2480  -16.6350   -3.9890 C.ar   21  TRP21       0.0152
     41  CE2        0.3020  -16.7070   -2.9250 C.ar   21  TRP21       0.0810
     42  CE3        1.6680  -15.3700   -4.4360 C.ar   21  TRP21       0.0012
     43  NE1        0.0520  -18.0350   -2.6840 N.ar   21  TRP21      -0.2442
     44  CZ2       -0.2230  -15.5590   -2.2950 C.ar   21  TRP21       0.0191
     45  CZ3        1.1420  -14.2140   -3.8060 C.ar   21  TRP21       0.0001
     46  CH2        0.2070  -14.3240   -2.7450 C.ar   21  TRP21       0.0015
     47  OXT        2.7400  -16.6140   -8.4280 O.co2  21  TRP21      -0.8460
@<TRIPOS>BOND
     1    47    35   ar
     2    36    35   ar
     3    35    34    1
     4    31    29    1
     5    32    30    1
     6    34    33    1
     7    34    37    1
     8    29    30    1
     9    29    26    1
    10    33    27   am
    11    37    38    1
    12    27    28    2
    13    27    26    1
    14    26    25    1
    15    42    40   ar
    16    42    45   ar
    17    38    40   ar
    18    38    39   ar
    19    40    41   ar
    20    45    46   ar
    21    25    19   am
    22    39    43   ar
    23    41    43   ar
    24    41    44   ar
    25     1     2    1
    26    46    44   ar
    27    19    20    2
    28    19    18    1
    29     4     3    2
    30    23    21    1
    31     2     3    1
    32     2     5    1
    33    21    18    1
    34    21    22    1
    35     3     9   am
    36    18    17    1
    37    17    11   am
    38     5     6    1
    39     6     8    1
    40     6     7    1
    41    22    24    1
    42     9    10    1
    43    11    12    2
    44    11    10    1
    45    10    13    1
    46    15    14   ar
    47    13    14    1
    48    14    16   ar
