@<TRIPOS>MOLECULE
../1EDN/XRAY_17-21_NOBACKBONE.pdb
 26 23 0 0 0
SMALL
GASTEIGER

@<TRIPOS>ATOM
      1  CB         5.6570  -21.0170   -0.8850 C.3    17  LEU17       0.0000
      2  CG         5.4050  -22.5400   -0.8470 C.3    17  LEU17       0.0000
      3  CD1        6.1110  -23.2140    0.3150 C.3    17  LEU17       0.0000
      4  CD2        3.9240  -22.7940   -0.7690 C.3    17  LEU17       0.0000
      5  CB         3.8720  -17.2370    1.5730 C.3    18  ASP18       0.0476
      6  CG         2.4440  -17.7210    1.8880 C.2    18  ASP18       0.0507
      7  OD1        1.8320  -18.4410    1.0660 O.co2  18  ASP18      -0.5492
      8  OD2        1.9260  -17.3730    2.9700 O.co2  18  ASP18      -0.5492
      9  CB         7.9140  -14.3690   -1.8400 C.3    19  ILE19       0.0000
     10  CG1        8.8760  -14.8240   -0.7490 C.3    19  ILE19       0.0000
     11  CG2        8.2810  -12.9320   -2.2380 C.3    19  ILE19       0.0000
     12  CD1        9.3280  -13.7050    0.1860 C.3    19  ILE19       0.0000
     13  CB         5.8140  -13.8870   -5.9550 C.3    20  ILE20       0.0000
     14  CG1        5.9530  -12.3980   -5.6400 C.3    20  ILE20       0.0000
     15  CG2        5.1640  -14.0490   -7.3150 C.3    20  ILE20       0.0000
     16  CD1        6.8340  -11.6390   -6.6010 C.3    20  ILE20       0.0000
     17  CB         2.6690  -18.5180   -5.3120 C.3    21  TRP21       0.0327
     18  CG         1.5690  -17.9980   -4.3600 C.ar   21  TRP21      -0.0013
     19  CD1        0.7990  -18.7930   -3.5490 C.ar   21  TRP21       0.0946
     20  CD2        1.2480  -16.6350   -3.9890 C.ar   21  TRP21       0.0152
     21  CE2        0.3020  -16.7070   -2.9250 C.ar   21  TRP21       0.0810
     22  CE3        1.6680  -15.3700   -4.4360 C.ar   21  TRP21       0.0012
     23  NE1        0.0520  -18.0350   -2.6840 N.ar   21  TRP21      -0.2442
     24  CZ2       -0.2230  -15.5590   -2.2950 C.ar   21  TRP21       0.0191
     25  CZ3        1.1420  -14.2140   -3.8060 C.ar   21  TRP21       0.0001
     26  CH2        0.2070  -14.3240   -2.7450 C.ar   21  TRP21       0.0015
@<TRIPOS>BOND
     1    15    13    1
     2    16    14    1
     3    13    14    1
     4    17    18    1
     5    22    20   ar
     6    22    25   ar
     7    18    20   ar
     8    18    19   ar
     9    20    21   ar
    10    25    26   ar
    11    19    23   ar
    12    21    23   ar
    13    21    24   ar
    14    26    24   ar
    15    11     9    1
    16     9    10    1
    17     1     2    1
    18     2     4    1
    19     2     3    1
    20    10    12    1
    21     7     6   ar
    22     5     6    1
    23     6     8   ar
@<TRIPOS>MOLECULE
108002
 64 68 0 0 0
SMALL
GASTEIGER

@<TRIPOS>ATOM
      1 O           1.2323  -18.5279   -5.3585 O.co2   1  LIG11      -0.5495
      2 O           2.8446  -19.2647   -3.9274 O.co2   1  LIG11      -0.5495
      3 O          -1.4386  -12.1382   -4.0042 O.3     1  LIG11      -0.4920
      4 O           3.8804  -16.0894   -6.9474 O.3     1  LIG11      -0.4858
      5 O           3.6933  -16.7497    1.3954 O.3     1  LIG11      -0.4526
      6 O           2.4112  -18.4882    2.4698 O.3     1  LIG11      -0.4526
      7 O           6.2513  -12.0805   -5.5479 O.3     1  LIG11      -0.4950
      8 O           6.1908  -15.8513   -8.7079 O.co2   1  LIG11      -0.5463
      9 O           4.7957  -16.6136  -10.3310 O.co2   1  LIG11      -0.5463
     10 C           2.2064  -16.9961   -3.8154 C.3     1  LIG11       0.0203
     11 C           1.9585  -15.8110   -4.7801 C.3     1  LIG11       0.0218
     12 C           1.0152  -17.0766   -2.8174 C.3     1  LIG11       0.0184
     13 C           0.8035  -15.0716   -4.1079 C.ar    1  LIG11      -0.0320
     14 C           0.3462  -15.7346   -2.9701 C.ar    1  LIG11      -0.0353
     15 C           1.3756  -17.4334   -1.3805 C.ar    1  LIG11      -0.0356
     16 C           3.1911  -14.9102   -4.9714 C.ar    1  LIG11       0.0026
     17 C           2.1107  -18.3807   -4.4617 C.2     1  LIG11       0.0466
     18 C           0.2221  -13.8686   -4.5078 C.ar    1  LIG11      -0.0159
     19 C          -0.6910  -15.2103   -2.2086 C.ar    1  LIG11      -0.0542
     20 C          -0.7862  -13.3075   -3.7198 C.ar    1  LIG11       0.1208
     21 C           4.0296  -15.0233   -6.0956 C.ar    1  LIG11       0.1283
     22 C           2.4219  -16.8030   -0.6880 C.ar    1  LIG11      -0.0124
     23 C           0.6267  -18.4466   -0.7269 C.ar    1  LIG11      -0.0543
     24 C          -1.2505  -13.9885   -2.5858 C.ar    1  LIG11      -0.0196
     25 C           3.4883  -13.8920   -4.0380 C.ar    1  LIG11      -0.0510
     26 C           2.6978  -17.2254    0.5966 C.ar    1  LIG11       0.1665
     27 C           0.9163  -18.8402    0.5812 C.ar    1  LIG11      -0.0159
     28 C           5.0759  -14.1081   -6.2926 C.ar    1  LIG11       0.0221
     29 C           4.5135  -12.9679   -4.2638 C.ar    1  LIG11      -0.0194
     30 C           1.9660  -18.2165    1.2123 C.ar    1  LIG11       0.1662
     31 C           5.2987  -13.0565   -5.4070 C.ar    1  LIG11       0.1236
     32 C          -0.6383  -11.0785   -4.5312 C.3     1  LIG11       0.0893
     33 C           3.5719  -17.6354    2.5235 C.3     1  LIG11       0.2332
     34 C           3.8016  -15.7440   -8.3514 C.3     1  LIG11       0.1287
     35 C          -1.3034  -10.5179   -5.7857 C.3     1  LIG11      -0.0215
     36 C           5.0523  -16.1427   -9.1776 C.2     1  LIG11       0.0789
     37 C           6.9563  -12.0855   -6.7875 C.3     1  LIG11       0.0788
     38 C          -1.3279  -11.5188   -6.9309 C.3     1  LIG11      -0.0622
     39 H           3.1792  -16.9044   -3.3176 H       1  LIG11       0.0379
     40 H           1.5994  -16.1350   -5.7638 H       1  LIG11       0.0405
     41 H           0.2615  -17.8025   -3.1574 H       1  LIG11       0.0404
     42 H           0.5681  -13.4022   -5.4231 H       1  LIG11       0.0657
     43 H          -1.0695  -15.7473   -1.3454 H       1  LIG11       0.0622
     44 H           3.0213  -16.0301   -1.1564 H       1  LIG11       0.0658
     45 H          -0.1732  -18.9510   -1.2671 H       1  LIG11       0.0622
     46 H          -2.0616  -13.5667   -2.0003 H       1  LIG11       0.0654
     47 H           2.8960  -13.7914   -3.1315 H       1  LIG11       0.0623
     48 H           0.3539  -19.6284    1.0637 H       1  LIG11       0.0655
     49 H           5.7277  -14.2537   -7.1439 H       1  LIG11       0.0691
     50 H           4.6921  -12.1753   -3.5447 H       1  LIG11       0.0654
     51 H           0.4062  -11.3447   -4.7259 H       1  LIG11       0.0696
     52 H          -0.6179  -10.2920   -3.7673 H       1  LIG11       0.0696
     53 H           3.5173  -17.0323    3.4364 H       1  LIG11       0.1166
     54 H           4.4679  -18.2661    2.5765 H       1  LIG11       0.1166
     55 H           3.5872  -14.6794   -8.5058 H       1  LIG11       0.0760
     56 H           2.9412  -16.2979   -8.7450 H       1  LIG11       0.0760
     57 H          -0.7720   -9.6151   -6.1061 H       1  LIG11       0.0295
     58 H          -2.3363  -10.2312   -5.5549 H       1  LIG11       0.0295
     59 H           7.6047  -11.2039   -6.8041 H       1  LIG11       0.0660
     60 H           6.2713  -12.0031   -7.6390 H       1  LIG11       0.0660
     61 H           7.5967  -12.9692   -6.8735 H       1  LIG11       0.0660
     62 H          -0.3130  -11.8202   -7.2081 H       1  LIG11       0.0231
     63 H          -1.8007  -11.0730   -7.8116 H       1  LIG11       0.0231
     64 H          -1.8948  -12.4163   -6.6645 H       1  LIG11       0.0231
@<TRIPOS>BOND
     1     1    17   ar
     2     2    17   ar
     3     3    20    1
     4     3    32    1
     5     4    21    1
     6     4    34    1
     7     5    26    1
     8     5    33    1
     9     6    30    1
    10     6    33    1
    11     7    31    1
    12     7    37    1
    13     8    36   ar
    14     9    36   ar
    15    10    11    1
    16    10    12    1
    17    10    17    1
    18    11    13    1
    19    11    16    1
    20    12    14    1
    21    12    15    1
    22    13    14   ar
    23    13    18   ar
    24    14    19   ar
    25    15    22   ar
    26    15    23   ar
    27    16    21   ar
    28    16    25   ar
    29    18    20   ar
    30    19    24   ar
    31    20    24   ar
    32    21    28   ar
    33    22    26   ar
    34    23    27   ar
    35    25    29   ar
    36    26    30   ar
    37    27    30   ar
    38    28    31   ar
    39    29    31   ar
    40    32    35    1
    41    34    36    1
    42    35    38    1
    43    10    39    1
    44    11    40    1
    45    12    41    1
    46    18    42    1
    47    19    43    1
    48    22    44    1
    49    23    45    1
    50    24    46    1
    51    25    47    1
    52    27    48    1
    53    28    49    1
    54    29    50    1
    55    32    51    1
    56    32    52    1
    57    33    53    1
    58    33    54    1
    59    34    55    1
    60    34    56    1
    61    35    57    1
    62    35    58    1
    63    37    59    1
    64    37    60    1
    65    37    61    1
    66    38    62    1
    67    38    63    1
    68    38    64    1
@<TRIPOS>MOLECULE
../1EDN/XRAY_17-21.pdb
 47 48 0 0 0
SMALL
GASTEIGER

@<TRIPOS>ATOM
      1  N          6.4500  -19.7300   -2.8460 N.3    17  LEU17      -0.1231
      2  CA         5.2640  -20.1680   -2.1160 C.3    17  LEU17       0.1693
      3  C          4.7010  -18.8060   -1.6720 C.2    17  LEU17       0.2592
      4  O          4.3760  -17.9800   -2.5270 O.2    17  LEU17      -0.2718
      5  CB         5.6570  -21.0170   -0.8850 C.3    17  LEU17       0.0284
      6  CG         5.4050  -22.5400   -0.8470 C.3    17  LEU17       0.0019
      7  CD1        6.1110  -23.2140    0.3150 C.3    17  LEU17       0.0001
      8  CD2        3.9240  -22.7940   -0.7690 C.3    17  LEU17       0.0001
      9  N          4.7270  -18.4910   -0.3800 N.am   18  ASP18      -0.1962
     10  CA         4.1720  -17.2010    0.0630 C.3    18  ASP18       0.1783
     11  C          4.7750  -15.8130   -0.3500 C.2    18  ASP18       0.2620
     12  O          4.1570  -14.7710   -0.0750 O.2    18  ASP18      -0.2715
     13  CB         3.8720  -17.2370    1.5730 C.3    18  ASP18       0.0728
     14  CG         2.4440  -17.7210    1.8880 C.2    18  ASP18       0.0526
     15  OD1        1.8320  -18.4410    1.0660 O.co2  18  ASP18      -0.5491
     16  OD2        1.9260  -17.3730    2.9700 O.co2  18  ASP18      -0.5491
     17  N          5.9570  -15.7420   -0.9630 N.am   19  ILE19      -0.1963
     18  CA         6.4450  -14.4030   -1.3510 C.3    19  ILE19       0.1727
     19  C          5.5760  -13.9960   -2.5290 C.2    19  ILE19       0.2616
     20  O          4.8370  -13.0080   -2.4770 O.2    19  ILE19      -0.2715
     21  CB         7.9140  -14.3690   -1.8400 C.3    19  ILE19       0.0290
     22  CG1        8.8760  -14.8240   -0.7490 C.3    19  ILE19       0.0022
     23  CG2        8.2810  -12.9320   -2.2380 C.3    19  ILE19       0.0023
     24  CD1        9.3280  -13.7050    0.1860 C.3    19  ILE19       0.0001
     25  N          5.7170  -14.7750   -3.5990 N.am   20  ILE20      -0.1963
     26  CA         4.9770  -14.6140   -4.8450 C.3    20  ILE20       0.1727
     27  C          4.7560  -16.0550   -5.2510 C.2    20  ILE20       0.2615
     28  O          5.5820  -16.9240   -4.9410 O.2    20  ILE20      -0.2715
     29  CB         5.8140  -13.8870   -5.9550 C.3    20  ILE20       0.0290
     30  CG1        5.9530  -12.3980   -5.6400 C.3    20  ILE20       0.0022
     31  CG2        5.1640  -14.0490   -7.3150 C.3    20  ILE20       0.0023
     32  CD1        6.8340  -11.6390   -6.6010 C.3    20  ILE20       0.0001
     33  N          3.6520  -16.3070   -5.9350 N.am   21  TRP21      -0.1988
     34  CA         3.3300  -17.6370   -6.4010 C.3    21  TRP21       0.1456
     35  C          2.5650  -17.6270   -7.7180 C.2    21  TRP21       0.1166
     36  O          1.8980  -18.6320   -8.0750 O.co2  21  TRP21      -0.3065
     37  CB         2.6690  -18.5180   -5.3120 C.3    21  TRP21       0.0562
     38  CG         1.5690  -17.9980   -4.3600 C.ar   21  TRP21       0.0005
     39  CD1        0.7990  -18.7930   -3.5490 C.ar   21  TRP21       0.0946
     40  CD2        1.2480  -16.6350   -3.9890 C.ar   21  TRP21       0.0152
     41  CE2        0.3020  -16.7070   -2.9250 C.ar   21  TRP21       0.0810
     42  CE3        1.6680  -15.3700   -4.4360 C.ar   21  TRP21       0.0012
     43  NE1        0.0520  -18.0350   -2.6840 N.ar   21  TRP21      -0.2442
     44  CZ2       -0.2230  -15.5590   -2.2950 C.ar   21  TRP21       0.0191
     45  CZ3        1.1420  -14.2140   -3.8060 C.ar   21  TRP21       0.0001
     46  CH2        0.2070  -14.3240   -2.7450 C.ar   21  TRP21       0.0015
     47  OXT        2.7400  -16.6140   -8.4280 O.co2  21  TRP21      -0.8460
@<TRIPOS>BOND
     1    47    35   ar
     2    36    35   ar
     3    35    34    1
     4    31    29    1
     5    32    30    1
     6    34    33    1
     7    34    37    1
     8    29    30    1
     9    29    26    1
    10    33    27   am
    11    37    38    1
    12    27    28    2
    13    27    26    1
    14    26    25    1
    15    42    40   ar
    16    42    45   ar
    17    38    40   ar
    18    38    39   ar
    19    40    41   ar
    20    45    46   ar
    21    25    19   am
    22    39    43   ar
    23    41    43   ar
    24    41    44   ar
    25     1     2    1
    26    46    44   ar
    27    19    20    2
    28    19    18    1
    29     4     3    2
    30    23    21    1
    31     2     3    1
    32     2     5    1
    33    21    18    1
    34    21    22    1
    35     3     9   am
    36    18    17    1
    37    17    11   am
    38     5     6    1
    39     6     8    1
    40     6     7    1
    41    22    24    1
    42     9    10    1
    43    11    12    2
    44    11    10    1
    45    10    13    1
    46    15    14   ar
    47    13    14    1
    48    14    16   ar
