@<TRIPOS>MOLECULE
../1EDN/3STEPMIN_17-21_NOBACKBONE.pdb
 26 23 0 0 0
SMALL
GASTEIGER

@<TRIPOS>ATOM
      1  CB        -6.9230   -0.4370    0.2770 C.3    17  LEU17       0.0000
      2  CG        -6.4950   -1.8450   -0.1910 C.3    17  LEU17       0.0000
      3  CD1       -6.5150   -2.8060    0.9980 C.3    17  LEU17       0.0000
      4  CD2       -7.4310   -2.4140   -1.2600 C.3    17  LEU17       0.0000
      5  CB        -9.0510    3.1310    2.7840 C.3    18  ASP18       0.1258
      6  CG       -10.5470    3.4340    2.8500 C.2    18  ASP18       0.3654
      7  OD1      -11.3300    2.4930    2.5610 O.co2  18  ASP18      -0.2456
      8  OD2      -10.9050    4.5930    3.1470 O.co2  18  ASP18      -0.2456
      9  CB        -4.3960    5.7260    0.0740 C.3    19  ILE19       0.0000
     10  CG2       -3.6150    6.9530   -0.4300 C.3    19  ILE19       0.0000
     11  CG1       -3.7730    5.2100    1.3920 C.3    19  ILE19       0.0000
     12  CD1       -3.8620    6.1700    2.5820 C.3    19  ILE19       0.0000
     13  CB        -6.0900    6.2460   -4.5940 C.3    20  ILE20       0.0000
     14  CG2       -6.7980    6.2490   -5.9680 C.3    20  ILE20       0.0000
     15  CG1       -5.7140    7.6970   -4.2070 C.3    20  ILE20       0.0000
     16  CD1       -4.7810    8.4150   -5.1910 C.3    20  ILE20       0.0000
     17  CB        -9.7020    1.6830   -3.5450 C.3    21  TRP21       0.0327
     18  CG       -10.4970    2.2370   -2.3850 C.ar   21  TRP21      -0.0013
     19  CD1      -10.6860    1.5470   -1.2340 C.ar   21  TRP21       0.0946
     20  NE1      -11.3350    2.3340   -0.3040 N.ar   21  TRP21      -0.2442
     21  CE2      -11.5720    3.5950   -0.7990 C.ar   21  TRP21       0.0810
     22  CZ2      -12.0950    4.7480   -0.2000 C.ar   21  TRP21       0.0191
     23  CH2      -12.2340    5.9130   -0.9670 C.ar   21  TRP21       0.0015
     24  CZ3      -11.8800    5.8920   -2.3260 C.ar   21  TRP21       0.0001
     25  CE3      -11.3480    4.7280   -2.9100 C.ar   21  TRP21       0.0012
     26  CD2      -11.1270    3.5500   -2.1550 C.ar   21  TRP21       0.0152
@<TRIPOS>BOND
     1    14    13    1
     2    16    15    1
     3    13    15    1
     4    17    18    1
     5    25    24   ar
     6    25    26   ar
     7    18    26   ar
     8    18    19   ar
     9    24    23   ar
    10    26    21   ar
    11     4     2    1
    12    19    20   ar
    13    23    22   ar
    14    21    20   ar
    15    21    22   ar
    16    10     9    1
    17     2     1    1
    18     2     3    1
    19     9    11    1
    20    11    12    1
    21     7     6   ar
    22     5     6    1
    23     6     8   ar
@<TRIPOS>MOLECULE
178103
 66 70 0 0 0
SMALL
GASTEIGER

@<TRIPOS>ATOM
      1 O         -12.8406    3.9847   -3.1923 O.co2   1  LIG11      -0.5495
      2 O         -12.1869    5.9932   -2.3547 O.co2   1  LIG11      -0.5495
      3 O          -7.8571   -1.1640   -2.1599 O.3     1  LIG11      -0.4920
      4 O         -12.9693    3.4864    0.2141 O.3     1  LIG11      -0.4893
      5 O          -5.5459    6.2060   -4.2678 O.3     1  LIG11      -0.4526
      6 O          -6.5914    8.1072   -5.3260 O.3     1  LIG11      -0.4526
      7 O         -10.3636    3.6023    4.1922 O.3     1  LIG11      -0.4950
      8 O         -15.9633    5.5851    0.2365 O.3     1  LIG11      -0.3917
      9 C         -10.6556    4.2060   -2.2643 C.3     1  LIG11       0.0203
     10 C         -10.8076    2.8916   -1.4700 C.3     1  LIG11       0.0218
     11 C          -9.9519    3.8874   -3.6054 C.3     1  LIG11       0.0184
     12 C          -9.7765    1.9956   -2.1309 C.ar    1  LIG11      -0.0320
     13 C          -9.3068    2.5490   -3.3237 C.ar    1  LIG11      -0.0353
     14 C         -10.6391    3.1061    0.0365 C.ar    1  LIG11       0.0025
     15 C          -9.0298    5.0254   -4.0455 C.ar    1  LIG11      -0.0356
     16 C         -12.0282    4.7700   -2.6268 C.2     1  LIG11       0.0466
     17 C          -9.3566    0.7334   -1.7099 C.ar    1  LIG11      -0.0159
     18 C          -8.4247    1.8371   -4.1257 C.ar    1  LIG11      -0.0542
     19 C         -11.7547    3.4047    0.8404 C.ar    1  LIG11       0.1278
     20 C          -8.4334    0.0315   -2.4851 C.ar    1  LIG11       0.1208
     21 C          -7.6362    5.0147   -3.8596 C.ar    1  LIG11      -0.0124
     22 C          -7.9695    0.5917   -3.6859 C.ar    1  LIG11      -0.0196
     23 C          -9.6235    6.1624   -4.6527 C.ar    1  LIG11      -0.0543
     24 C          -9.3767    3.0571    0.6547 C.ar    1  LIG11      -0.0510
     25 C          -6.9009    6.0850   -4.3307 C.ar    1  LIG11       0.1665
     26 C          -8.8574    7.2445   -5.0978 C.ar    1  LIG11      -0.0159
     27 C         -11.6100    3.5529    2.2257 C.ar    1  LIG11       0.0221
     28 C          -9.2368    3.2158    2.0387 C.ar    1  LIG11      -0.0194
     29 C          -7.4946    7.1680   -4.9350 C.ar    1  LIG11       0.1662
     30 C         -10.3568    3.4499    2.8315 C.ar    1  LIG11       0.1236
     31 C          -8.5799   -2.0653   -1.3241 C.3     1  LIG11       0.0893
     32 C          -5.3605    7.4746   -4.9257 C.3     1  LIG11       0.2332
     33 C         -13.8951    4.4282    0.7612 C.3     1  LIG11       0.1126
     34 C          -7.5799   -2.8177   -0.4474 C.3     1  LIG11      -0.0215
     35 C         -14.8446    4.8982   -0.3341 C.3     1  LIG11       0.0783
     36 C          -9.1238    3.4198    4.8613 C.3     1  LIG11       0.0788
     37 C          -6.8783   -1.8920    0.5380 C.3     1  LIG11      -0.0622
     38 H         -16.3966    6.0155   -0.5217 H       1  LIG11       0.2095
     39 H         -10.0860    4.9487   -1.6870 H       1  LIG11       0.0379
     40 H         -11.7725    2.3996   -1.6464 H       1  LIG11       0.0405
     41 H         -10.6640    3.7098   -4.4235 H       1  LIG11       0.0404
     42 H          -9.7422    0.3575   -0.7710 H       1  LIG11       0.0657
     43 H          -8.0841    2.2443   -5.0725 H       1  LIG11       0.0622
     44 H          -7.1305    4.1936   -3.3654 H       1  LIG11       0.0658
     45 H          -7.2523    0.0429   -4.2900 H       1  LIG11       0.0654
     46 H         -10.7092    6.2089   -4.7584 H       1  LIG11       0.0622
     47 H          -8.4823    2.8890    0.0587 H       1  LIG11       0.0623
     48 H          -9.3279    8.1097   -5.5477 H       1  LIG11       0.0655
     49 H         -12.4755    3.7367    2.8541 H       1  LIG11       0.0691
     50 H          -8.2393    3.1501    2.4566 H       1  LIG11       0.0654
     51 H          -9.0984   -2.7779   -1.9754 H       1  LIG11       0.0696
     52 H          -9.3299   -1.5980   -0.6828 H       1  LIG11       0.0696
     53 H          -4.7435    7.3184   -5.8188 H       1  LIG11       0.1166
     54 H          -4.8246    8.1473   -4.2461 H       1  LIG11       0.1166
     55 H         -13.3921    5.3071    1.1857 H       1  LIG11       0.0720
     56 H         -14.4670    3.9429    1.5611 H       1  LIG11       0.0720
     57 H          -6.8207   -3.2956   -1.0773 H       1  LIG11       0.0295
     58 H          -8.1011   -3.6064    0.1059 H       1  LIG11       0.0295
     59 H         -14.3327    5.5865   -1.0099 H       1  LIG11       0.0591
     60 H         -15.2157    4.0553   -0.9261 H       1  LIG11       0.0591
     61 H          -9.3022    3.5460    5.9338 H       1  LIG11       0.0660
     62 H          -8.3934    4.1755    4.5554 H       1  LIG11       0.0660
     63 H          -8.7363    2.4072    4.7062 H       1  LIG11       0.0660
     64 H          -6.2952   -1.1248    0.0187 H       1  LIG11       0.0231
     65 H          -6.1930   -2.4634    1.1719 H       1  LIG11       0.0231
     66 H          -7.6031   -1.3901    1.1873 H       1  LIG11       0.0231
@<TRIPOS>BOND
     1     1    16   ar
     2     2    16   ar
     3     3    20    1
     4     3    31    1
     5     4    19    1
     6     4    33    1
     7     5    25    1
     8     5    32    1
     9     6    29    1
    10     6    32    1
    11     7    30    1
    12     7    36    1
    13     8    35    1
    14     9    10    1
    15     9    11    1
    16     9    16    1
    17    10    12    1
    18    10    14    1
    19    11    13    1
    20    11    15    1
    21    12    13   ar
    22    12    17   ar
    23    13    18   ar
    24    14    19   ar
    25    14    24   ar
    26    15    21   ar
    27    15    23   ar
    28    17    20   ar
    29    18    22   ar
    30    19    27   ar
    31    20    22   ar
    32    21    25   ar
    33    23    26   ar
    34    24    28   ar
    35    25    29   ar
    36    26    29   ar
    37    27    30   ar
    38    28    30   ar
    39    31    34    1
    40    33    35    1
    41    34    37    1
    42     8    38    1
    43     9    39    1
    44    10    40    1
    45    11    41    1
    46    17    42    1
    47    18    43    1
    48    21    44    1
    49    22    45    1
    50    23    46    1
    51    24    47    1
    52    26    48    1
    53    27    49    1
    54    28    50    1
    55    31    51    1
    56    31    52    1
    57    32    53    1
    58    32    54    1
    59    33    55    1
    60    33    56    1
    61    34    57    1
    62    34    58    1
    63    35    59    1
    64    35    60    1
    65    36    61    1
    66    36    62    1
    67    36    63    1
    68    37    64    1
    69    37    65    1
    70    37    66    1
@<TRIPOS>MOLECULE
../1EDN/3STEPMIN_17-21.pdb
 47 48 0 0 0
SMALL
GASTEIGER

@<TRIPOS>ATOM
      1  N         -5.4290    0.8830   -1.1740 N.3    17  LEU17      -0.1231
      2  CA        -6.8230    0.6710   -0.7980 C.3    17  LEU17       0.1693
      3  CB        -6.9230   -0.4370    0.2770 C.3    17  LEU17       0.0284
      4  CG        -6.4950   -1.8450   -0.1910 C.3    17  LEU17       0.0019
      5  CD1       -6.5150   -2.8060    0.9980 C.3    17  LEU17       0.0001
      6  CD2       -7.4310   -2.4140   -1.2600 C.3    17  LEU17       0.0001
      7  C         -7.3990    2.0370   -0.3760 C.2    17  LEU17       0.2592
      8  O         -7.4670    2.9330   -1.2040 O.2    17  LEU17      -0.2718
      9  N         -7.7380    2.2560    0.8970 N.am   18  ASP18      -0.1960
     10  CA        -8.5130    3.4280    1.3730 C.3    18  ASP18       0.1840
     11  CB        -9.0510    3.1310    2.7840 C.3    18  ASP18       0.1450
     12  CG       -10.5470    3.4340    2.8500 C.2    18  ASP18       0.3671
     13  OD1      -11.3300    2.4930    2.5610 O.co2  18  ASP18      -0.2456
     14  OD2      -10.9050    4.5930    3.1470 O.co2  18  ASP18      -0.2456
     15  C         -7.8270    4.8120    1.2910 C.2    18  ASP18       0.2622
     16  O         -8.3890    5.8210    1.7350 O.2    18  ASP18      -0.2715
     17  N         -6.6250    4.8510    0.7010 N.am   19  ILE19      -0.1963
     18  CA        -5.9180    6.0210    0.1680 C.3    19  ILE19       0.1727
     19  CB        -4.3960    5.7260    0.0740 C.3    19  ILE19       0.0290
     20  CG2       -3.6150    6.9530   -0.4300 C.3    19  ILE19       0.0023
     21  CG1       -3.7730    5.2100    1.3920 C.3    19  ILE19       0.0022
     22  CD1       -3.8620    6.1700    2.5820 C.3    19  ILE19       0.0001
     23  C         -6.4970    6.4050   -1.2110 C.2    19  ILE19       0.2616
     24  O         -7.0070    7.5130   -1.3720 O.2    19  ILE19      -0.2715
     25  N         -6.3950    5.4980   -2.1940 N.am   20  ILE20      -0.1963
     26  CA        -6.9990    5.5490   -3.5400 C.3    20  ILE20       0.1727
     27  CB        -6.0900    6.2460   -4.5940 C.3    20  ILE20       0.0290
     28  CG2       -6.7980    6.2490   -5.9680 C.3    20  ILE20       0.0023
     29  CG1       -5.7140    7.6970   -4.2070 C.3    20  ILE20       0.0022
     30  CD1       -4.7810    8.4150   -5.1910 C.3    20  ILE20       0.0001
     31  C         -7.3180    4.1070   -3.9880 C.2    20  ILE20       0.2617
     32  O         -6.4020    3.3070   -4.2100 O.2    20  ILE20      -0.2715
     33  N         -8.6100    3.8210   -4.1620 N.am   21  TRP21      -0.1938
     34  CA        -9.2240    2.5950   -4.7020 C.3    21  TRP21       0.2021
     35  CB        -9.7020    1.6830   -3.5450 C.3    21  TRP21       0.0612
     36  CG       -10.4970    2.2370   -2.3850 C.ar   21  TRP21       0.0007
     37  CD1      -10.6860    1.5470   -1.2340 C.ar   21  TRP21       0.0946
     38  NE1      -11.3350    2.3340   -0.3040 N.ar   21  TRP21      -0.2442
     39  CE2      -11.5720    3.5950   -0.7990 C.ar   21  TRP21       0.0810
     40  CZ2      -12.0950    4.7480   -0.2000 C.ar   21  TRP21       0.0191
     41  CH2      -12.2340    5.9130   -0.9670 C.ar   21  TRP21       0.0015
     42  CZ3      -11.8800    5.8920   -2.3260 C.ar   21  TRP21       0.0001
     43  CE3      -11.3480    4.7280   -2.9100 C.ar   21  TRP21       0.0012
     44  CD2      -11.1270    3.5500   -2.1550 C.ar   21  TRP21       0.0152
     45  C        -10.3230    2.8760   -5.7330 C.2    21  TRP21       0.3845
     46  O        -11.0800    1.9620   -6.0950 O.co2  21  TRP21      -0.2437
     47  OXT      -10.4270    4.0430   -6.2080 O.co2  21  TRP21      -0.2437
@<TRIPOS>BOND
     1    47    45   ar
     2    46    45   ar
     3    28    27    1
     4    45    34    1
     5    30    29    1
     6    34    33    1
     7    34    35    1
     8    27    29    1
     9    27    26    1
    10    32    31    2
    11    33    31   am
    12    31    26    1
    13    35    36    1
    14    26    25    1
    15    43    42   ar
    16    43    44   ar
    17    36    44   ar
    18    36    37   ar
    19    42    41   ar
    20    25    23   am
    21    44    39   ar
    22    24    23    2
    23     6     4    1
    24    37    38   ar
    25    23    18    1
    26     8     7    2
    27     1     2    1
    28    41    40   ar
    29    39    38   ar
    30    39    40   ar
    31     2     7    1
    32     2     3    1
    33    20    19    1
    34     7     9   am
    35     4     3    1
    36     4     5    1
    37    19    18    1
    38    19    21    1
    39    18    17    1
    40    17    15   am
    41     9    10    1
    42    15    10    1
    43    15    16    2
    44    10    11    1
    45    21    22    1
    46    13    12   ar
    47    11    12    1
    48    12    14   ar
