@<TRIPOS>MOLECULE
../1EDN/3STEPMIN_17-21_NOBACKBONE.pdb
 26 23 0 0 0
SMALL
GASTEIGER

@<TRIPOS>ATOM
      1  CB        -6.9230   -0.4370    0.2770 C.3    17  LEU17       0.0000
      2  CG        -6.4950   -1.8450   -0.1910 C.3    17  LEU17       0.0000
      3  CD1       -6.5150   -2.8060    0.9980 C.3    17  LEU17       0.0000
      4  CD2       -7.4310   -2.4140   -1.2600 C.3    17  LEU17       0.0000
      5  CB        -9.0510    3.1310    2.7840 C.3    18  ASP18       0.1258
      6  CG       -10.5470    3.4340    2.8500 C.2    18  ASP18       0.3654
      7  OD1      -11.3300    2.4930    2.5610 O.co2  18  ASP18      -0.2456
      8  OD2      -10.9050    4.5930    3.1470 O.co2  18  ASP18      -0.2456
      9  CB        -4.3960    5.7260    0.0740 C.3    19  ILE19       0.0000
     10  CG2       -3.6150    6.9530   -0.4300 C.3    19  ILE19       0.0000
     11  CG1       -3.7730    5.2100    1.3920 C.3    19  ILE19       0.0000
     12  CD1       -3.8620    6.1700    2.5820 C.3    19  ILE19       0.0000
     13  CB        -6.0900    6.2460   -4.5940 C.3    20  ILE20       0.0000
     14  CG2       -6.7980    6.2490   -5.9680 C.3    20  ILE20       0.0000
     15  CG1       -5.7140    7.6970   -4.2070 C.3    20  ILE20       0.0000
     16  CD1       -4.7810    8.4150   -5.1910 C.3    20  ILE20       0.0000
     17  CB        -9.7020    1.6830   -3.5450 C.3    21  TRP21       0.0327
     18  CG       -10.4970    2.2370   -2.3850 C.ar   21  TRP21      -0.0013
     19  CD1      -10.6860    1.5470   -1.2340 C.ar   21  TRP21       0.0946
     20  NE1      -11.3350    2.3340   -0.3040 N.ar   21  TRP21      -0.2442
     21  CE2      -11.5720    3.5950   -0.7990 C.ar   21  TRP21       0.0810
     22  CZ2      -12.0950    4.7480   -0.2000 C.ar   21  TRP21       0.0191
     23  CH2      -12.2340    5.9130   -0.9670 C.ar   21  TRP21       0.0015
     24  CZ3      -11.8800    5.8920   -2.3260 C.ar   21  TRP21       0.0001
     25  CE3      -11.3480    4.7280   -2.9100 C.ar   21  TRP21       0.0012
     26  CD2      -11.1270    3.5500   -2.1550 C.ar   21  TRP21       0.0152
@<TRIPOS>BOND
     1    14    13    1
     2    16    15    1
     3    13    15    1
     4    17    18    1
     5    25    24   ar
     6    25    26   ar
     7    18    26   ar
     8    18    19   ar
     9    24    23   ar
    10    26    21   ar
    11     4     2    1
    12    19    20   ar
    13    23    22   ar
    14    21    20   ar
    15    21    22   ar
    16    10     9    1
    17     2     1    1
    18     2     3    1
    19     9    11    1
    20    11    12    1
    21     7     6   ar
    22     5     6    1
    23     6     8   ar
@<TRIPOS>MOLECULE
9939443
 70 74 0 0 0
SMALL
GASTEIGER

@<TRIPOS>ATOM
      1 S         -11.8243    1.3257   -2.4756 S.O2    1  LIG11       0.0908
      2 O          -8.9071    0.5146   -0.3677 O.3     1  LIG11      -0.4435
      3 O         -12.6171    1.0591   -3.6655 O.2     1  LIG11      -0.1484
      4 O         -12.1813    0.7051   -1.2198 O.2     1  LIG11      -0.1484
      5 O          -7.3346    2.9673    0.3882 O.3     1  LIG11      -0.4715
      6 O          -9.5031   -2.0013    0.9398 O.3     1  LIG11      -0.4914
      7 O          -9.7555    2.5448    3.1627 O.3     1  LIG11      -0.3917
      8 N         -10.2499    0.8354   -2.9000 N.pl3   1  LIG11      -0.1950
      9 N         -11.1327    3.5160   -1.1229 N.ar    1  LIG11      -0.2351
     10 N          -8.9342    2.6008   -3.3444 N.ar    1  LIG11      -0.2073
     11 N          -7.5912    3.6686   -1.7181 N.ar    1  LIG11      -0.1899
     12 N          -6.9856    6.4370   -5.9544 N.ar    1  LIG11      -0.2552
     13 N          -4.8950    8.3246   -5.4061 N.ar    1  LIG11      -0.5621
     14 N          -4.9575    7.8148   -3.2040 N.ar    1  LIG11      -0.1535
     15 N          -4.0723    9.0610   -4.6518 N.ar    1  LIG11      -0.3597
     16 N          -4.0782    8.7972   -3.3414 N.ar    1  LIG11      -0.0878
     17 C         -11.9169    7.2564   -1.2335 C.3     1  LIG11      -0.0201
     18 C         -11.8697    5.7822   -1.5951 C.ar    1  LIG11      -0.0266
     19 C         -11.0424    8.0759   -2.1859 C.3     1  LIG11      -0.0586
     20 C         -11.5359    7.5766    0.2177 C.3     1  LIG11      -0.0586
     21 C         -11.8252    3.1076   -2.2199 C.ar    1  LIG11       0.1969
     22 C         -12.5641    5.3068   -2.7201 C.ar    1  LIG11      -0.0535
     23 C         -11.1642    4.8402   -0.8528 C.ar    1  LIG11       0.0332
     24 C         -12.5475    3.9507   -3.0456 C.ar    1  LIG11      -0.0160
     25 C          -9.2049    1.6639   -2.4270 C.ar    1  LIG11       0.1882
     26 C          -8.6516    1.5916   -1.1623 C.ar    1  LIG11       0.2307
     27 C          -7.9026    2.7004   -0.8200 C.ar    1  LIG11       0.2641
     28 C          -8.0985    3.5698   -2.9564 C.ar    1  LIG11       0.1659
     29 C          -7.7278    4.5746   -3.9693 C.ar    1  LIG11       0.0227
     30 C          -7.9060   -0.4186   -0.1363 C.ar    1  LIG11       0.1702
     31 C          -6.7938    5.5883   -3.7035 C.ar    1  LIG11      -0.0252
     32 C          -8.2787    4.5365   -5.2603 C.ar    1  LIG11      -0.0328
     33 C          -7.9166    2.4876    1.5996 C.3     1  LIG11       0.1143
     34 C          -8.2528   -1.5956    0.5542 C.ar    1  LIG11       0.1621
     35 C          -6.4443    6.4896   -4.7096 C.ar    1  LIG11       0.0708
     36 C          -6.5515   -0.2015   -0.4479 C.ar    1  LIG11      -0.0157
     37 C          -7.8855    5.4702   -6.2016 C.ar    1  LIG11       0.0289
     38 C          -9.3554    2.9283    1.8514 C.3     1  LIG11       0.0783
     39 C          -7.2486   -2.4766    0.9810 C.ar    1  LIG11      -0.0163
     40 C          -5.5619   -1.0941   -0.0232 C.ar    1  LIG11      -0.0581
     41 C          -5.9084   -2.2265    0.7019 C.ar    1  LIG11      -0.0581
     42 C          -5.4493    7.5357   -4.4633 C.ar    1  LIG11       0.0207
     43 C         -10.5837   -1.6325    0.0941 C.3     1  LIG11       0.0790
     44 H         -10.7258    2.6135    3.1943 H       1  LIG11       0.2095
     45 H         -10.2154    0.7582   -3.9143 H       1  LIG11       0.1754
     46 H          -3.4734    9.7787   -5.0504 H       1  LIG11       0.1651
     47 H         -12.9584    7.5840   -1.3558 H       1  LIG11       0.0344
     48 H          -9.9925    7.7670   -2.1294 H       1  LIG11       0.0235
     49 H         -11.3681    7.9604   -3.2251 H       1  LIG11       0.0235
     50 H         -11.0961    9.1422   -1.9404 H       1  LIG11       0.0235
     51 H         -10.4752    7.3789    0.4146 H       1  LIG11       0.0235
     52 H         -11.7143    8.6355    0.4382 H       1  LIG11       0.0235
     53 H         -12.1291    6.9873    0.9257 H       1  LIG11       0.0235
     54 H         -13.1350    5.9954   -3.3409 H       1  LIG11       0.0622
     55 H         -10.5828    5.1253    0.0185 H       1  LIG11       0.0833
     56 H         -13.1004    3.5758   -3.8992 H       1  LIG11       0.0653
     57 H          -6.3308    5.6614   -2.7225 H       1  LIG11       0.0646
     58 H          -9.0050    3.7799   -5.5431 H       1  LIG11       0.0640
     59 H          -7.7973    1.4085    1.7128 H       1  LIG11       0.0720
     60 H          -7.2990    2.9002    2.4077 H       1  LIG11       0.0720
     61 H          -6.2124    0.6809   -0.9806 H       1  LIG11       0.0655
     62 H          -8.2922    5.4589   -7.2091 H       1  LIG11       0.0830
     63 H         -10.0423    2.4670    1.1389 H       1  LIG11       0.0591
     64 H          -9.4455    4.0145    1.7619 H       1  LIG11       0.0591
     65 H          -7.5223   -3.3661    1.5444 H       1  LIG11       0.0655
     66 H          -4.5161   -0.8871   -0.2379 H       1  LIG11       0.0619
     67 H          -5.1418   -2.9116    1.0538 H       1  LIG11       0.0619
     68 H         -11.3715   -2.3839    0.2085 H       1  LIG11       0.0660
     69 H         -10.9874   -0.6765    0.4323 H       1  LIG11       0.0660
     70 H         -10.3066   -1.6116   -0.9646 H       1  LIG11       0.0660
@<TRIPOS>BOND
     1     1    21    1
     2     1     8    1
     3     1     4    2
     4     1     3    2
     5     2    26    1
     6     2    30    1
     7     5    27    1
     8     5    33    1
     9     6    34    1
    10     6    43    1
    11     7    38    1
    12     8    25    1
    13     9    23   ar
    14     9    21   ar
    15    10    25   ar
    16    10    28   ar
    17    11    27   ar
    18    11    28   ar
    19    12    37   ar
    20    12    35   ar
    21    13    15   ar
    22    13    42   ar
    23    14    42   ar
    24    14    16   ar
    25    15    16   ar
    26    17    18    1
    27    17    20    1
    28    17    19    1
    29    18    23   ar
    30    18    22   ar
    31    21    24   ar
    32    22    24   ar
    33    25    26   ar
    34    26    27   ar
    35    28    29    1
    36    29    31   ar
    37    29    32   ar
    38    30    36   ar
    39    30    34   ar
    40    31    35   ar
    41    32    37   ar
    42    33    38    1
    43    34    39   ar
    44    35    42    1
    45    36    40   ar
    46    39    41   ar
    47    40    41   ar
    48     7    44    1
    49     8    45    1
    50    15    46    1
    51    17    47    1
    52    19    48    1
    53    19    49    1
    54    19    50    1
    55    20    51    1
    56    20    52    1
    57    20    53    1
    58    22    54    1
    59    23    55    1
    60    24    56    1
    61    31    57    1
    62    32    58    1
    63    33    59    1
    64    33    60    1
    65    36    61    1
    66    37    62    1
    67    38    63    1
    68    38    64    1
    69    39    65    1
    70    40    66    1
    71    41    67    1
    72    43    68    1
    73    43    69    1
    74    43    70    1
@<TRIPOS>MOLECULE
../1EDN/3STEPMIN_17-21.pdb
 47 48 0 0 0
SMALL
GASTEIGER

@<TRIPOS>ATOM
      1  N         -5.4290    0.8830   -1.1740 N.3    17  LEU17      -0.1231
      2  CA        -6.8230    0.6710   -0.7980 C.3    17  LEU17       0.1693
      3  CB        -6.9230   -0.4370    0.2770 C.3    17  LEU17       0.0284
      4  CG        -6.4950   -1.8450   -0.1910 C.3    17  LEU17       0.0019
      5  CD1       -6.5150   -2.8060    0.9980 C.3    17  LEU17       0.0001
      6  CD2       -7.4310   -2.4140   -1.2600 C.3    17  LEU17       0.0001
      7  C         -7.3990    2.0370   -0.3760 C.2    17  LEU17       0.2592
      8  O         -7.4670    2.9330   -1.2040 O.2    17  LEU17      -0.2718
      9  N         -7.7380    2.2560    0.8970 N.am   18  ASP18      -0.1960
     10  CA        -8.5130    3.4280    1.3730 C.3    18  ASP18       0.1840
     11  CB        -9.0510    3.1310    2.7840 C.3    18  ASP18       0.1450
     12  CG       -10.5470    3.4340    2.8500 C.2    18  ASP18       0.3671
     13  OD1      -11.3300    2.4930    2.5610 O.co2  18  ASP18      -0.2456
     14  OD2      -10.9050    4.5930    3.1470 O.co2  18  ASP18      -0.2456
     15  C         -7.8270    4.8120    1.2910 C.2    18  ASP18       0.2622
     16  O         -8.3890    5.8210    1.7350 O.2    18  ASP18      -0.2715
     17  N         -6.6250    4.8510    0.7010 N.am   19  ILE19      -0.1963
     18  CA        -5.9180    6.0210    0.1680 C.3    19  ILE19       0.1727
     19  CB        -4.3960    5.7260    0.0740 C.3    19  ILE19       0.0290
     20  CG2       -3.6150    6.9530   -0.4300 C.3    19  ILE19       0.0023
     21  CG1       -3.7730    5.2100    1.3920 C.3    19  ILE19       0.0022
     22  CD1       -3.8620    6.1700    2.5820 C.3    19  ILE19       0.0001
     23  C         -6.4970    6.4050   -1.2110 C.2    19  ILE19       0.2616
     24  O         -7.0070    7.5130   -1.3720 O.2    19  ILE19      -0.2715
     25  N         -6.3950    5.4980   -2.1940 N.am   20  ILE20      -0.1963
     26  CA        -6.9990    5.5490   -3.5400 C.3    20  ILE20       0.1727
     27  CB        -6.0900    6.2460   -4.5940 C.3    20  ILE20       0.0290
     28  CG2       -6.7980    6.2490   -5.9680 C.3    20  ILE20       0.0023
     29  CG1       -5.7140    7.6970   -4.2070 C.3    20  ILE20       0.0022
     30  CD1       -4.7810    8.4150   -5.1910 C.3    20  ILE20       0.0001
     31  C         -7.3180    4.1070   -3.9880 C.2    20  ILE20       0.2617
     32  O         -6.4020    3.3070   -4.2100 O.2    20  ILE20      -0.2715
     33  N         -8.6100    3.8210   -4.1620 N.am   21  TRP21      -0.1938
     34  CA        -9.2240    2.5950   -4.7020 C.3    21  TRP21       0.2021
     35  CB        -9.7020    1.6830   -3.5450 C.3    21  TRP21       0.0612
     36  CG       -10.4970    2.2370   -2.3850 C.ar   21  TRP21       0.0007
     37  CD1      -10.6860    1.5470   -1.2340 C.ar   21  TRP21       0.0946
     38  NE1      -11.3350    2.3340   -0.3040 N.ar   21  TRP21      -0.2442
     39  CE2      -11.5720    3.5950   -0.7990 C.ar   21  TRP21       0.0810
     40  CZ2      -12.0950    4.7480   -0.2000 C.ar   21  TRP21       0.0191
     41  CH2      -12.2340    5.9130   -0.9670 C.ar   21  TRP21       0.0015
     42  CZ3      -11.8800    5.8920   -2.3260 C.ar   21  TRP21       0.0001
     43  CE3      -11.3480    4.7280   -2.9100 C.ar   21  TRP21       0.0012
     44  CD2      -11.1270    3.5500   -2.1550 C.ar   21  TRP21       0.0152
     45  C        -10.3230    2.8760   -5.7330 C.2    21  TRP21       0.3845
     46  O        -11.0800    1.9620   -6.0950 O.co2  21  TRP21      -0.2437
     47  OXT      -10.4270    4.0430   -6.2080 O.co2  21  TRP21      -0.2437
@<TRIPOS>BOND
     1    47    45   ar
     2    46    45   ar
     3    28    27    1
     4    45    34    1
     5    30    29    1
     6    34    33    1
     7    34    35    1
     8    27    29    1
     9    27    26    1
    10    32    31    2
    11    33    31   am
    12    31    26    1
    13    35    36    1
    14    26    25    1
    15    43    42   ar
    16    43    44   ar
    17    36    44   ar
    18    36    37   ar
    19    42    41   ar
    20    25    23   am
    21    44    39   ar
    22    24    23    2
    23     6     4    1
    24    37    38   ar
    25    23    18    1
    26     8     7    2
    27     1     2    1
    28    41    40   ar
    29    39    38   ar
    30    39    40   ar
    31     2     7    1
    32     2     3    1
    33    20    19    1
    34     7     9   am
    35     4     3    1
    36     4     5    1
    37    19    18    1
    38    19    21    1
    39    18    17    1
    40    17    15   am
    41     9    10    1
    42    15    10    1
    43    15    16    2
    44    10    11    1
    45    21    22    1
    46    13    12   ar
    47    11    12    1
    48    12    14   ar
