@<TRIPOS>MOLECULE
../1EDN/3STEPMIN_17-21_NOBACKBONE.pdb
 26 23 0 0 0
SMALL
GASTEIGER

@<TRIPOS>ATOM
      1  CB        -6.9230   -0.4370    0.2770 C.3    17  LEU17       0.0000
      2  CG        -6.4950   -1.8450   -0.1910 C.3    17  LEU17       0.0000
      3  CD1       -6.5150   -2.8060    0.9980 C.3    17  LEU17       0.0000
      4  CD2       -7.4310   -2.4140   -1.2600 C.3    17  LEU17       0.0000
      5  CB        -9.0510    3.1310    2.7840 C.3    18  ASP18       0.1258
      6  CG       -10.5470    3.4340    2.8500 C.2    18  ASP18       0.3654
      7  OD1      -11.3300    2.4930    2.5610 O.co2  18  ASP18      -0.2456
      8  OD2      -10.9050    4.5930    3.1470 O.co2  18  ASP18      -0.2456
      9  CB        -4.3960    5.7260    0.0740 C.3    19  ILE19       0.0000
     10  CG2       -3.6150    6.9530   -0.4300 C.3    19  ILE19       0.0000
     11  CG1       -3.7730    5.2100    1.3920 C.3    19  ILE19       0.0000
     12  CD1       -3.8620    6.1700    2.5820 C.3    19  ILE19       0.0000
     13  CB        -6.0900    6.2460   -4.5940 C.3    20  ILE20       0.0000
     14  CG2       -6.7980    6.2490   -5.9680 C.3    20  ILE20       0.0000
     15  CG1       -5.7140    7.6970   -4.2070 C.3    20  ILE20       0.0000
     16  CD1       -4.7810    8.4150   -5.1910 C.3    20  ILE20       0.0000
     17  CB        -9.7020    1.6830   -3.5450 C.3    21  TRP21       0.0327
     18  CG       -10.4970    2.2370   -2.3850 C.ar   21  TRP21      -0.0013
     19  CD1      -10.6860    1.5470   -1.2340 C.ar   21  TRP21       0.0946
     20  NE1      -11.3350    2.3340   -0.3040 N.ar   21  TRP21      -0.2442
     21  CE2      -11.5720    3.5950   -0.7990 C.ar   21  TRP21       0.0810
     22  CZ2      -12.0950    4.7480   -0.2000 C.ar   21  TRP21       0.0191
     23  CH2      -12.2340    5.9130   -0.9670 C.ar   21  TRP21       0.0015
     24  CZ3      -11.8800    5.8920   -2.3260 C.ar   21  TRP21       0.0001
     25  CE3      -11.3480    4.7280   -2.9100 C.ar   21  TRP21       0.0012
     26  CD2      -11.1270    3.5500   -2.1550 C.ar   21  TRP21       0.0152
@<TRIPOS>BOND
     1    14    13    1
     2    16    15    1
     3    13    15    1
     4    17    18    1
     5    25    24   ar
     6    25    26   ar
     7    18    26   ar
     8    18    19   ar
     9    24    23   ar
    10    26    21   ar
    11     4     2    1
    12    19    20   ar
    13    23    22   ar
    14    21    20   ar
    15    21    22   ar
    16    10     9    1
    17     2     1    1
    18     2     3    1
    19     9    11    1
    20    11    12    1
    21     7     6   ar
    22     5     6    1
    23     6     8   ar
@<TRIPOS>MOLECULE
156690
 70 73 0 0 0
SMALL
GASTEIGER

@<TRIPOS>ATOM
      1 S         -10.2931    2.2556   -1.6607 S.O2    1  LIG11       0.0741
      2 O          -5.3081    8.0822   -4.6661 O.2     1  LIG11      -0.2756
      3 O         -10.8862    1.4489   -2.7140 O.2     1  LIG11      -0.1499
      4 O          -8.8828    2.1030   -1.4031 O.2     1  LIG11      -0.1499
      5 O          -4.0622    6.4353    1.0681 O.2     1  LIG11      -0.4436
      6 O          -9.9858    2.8940    2.8596 O.2     1  LIG11      -0.3578
      7 N          -6.7970    8.0160   -2.9276 N.am    1  LIG11      -0.3002
      8 N         -11.1972    1.8538   -0.2545 N.pl3   1  LIG11      -0.1965
      9 N          -4.1193    4.2207    1.5106 N.ar    1  LIG11      -0.2175
     10 N         -10.1378    1.9479    1.8611 N.ar    1  LIG11      -0.0614
     11 C          -6.5203    5.8645   -6.1492 C.3     1  LIG11      -0.0295
     12 C          -7.0517    6.4061   -4.8019 C.3     1  LIG11       0.0290
     13 C          -7.4970    4.7653   -6.6224 C.3     1  LIG11      -0.0596
     14 C          -6.4864    6.9588   -7.2298 C.3     1  LIG11      -0.0596
     15 C          -5.1299    5.2342   -5.9822 C.3     1  LIG11      -0.0596
     16 C          -6.2902    7.5586   -4.1434 C.2     1  LIG11       0.2161
     17 C          -7.9543    7.4252   -2.2520 C.3     1  LIG11       0.0400
     18 C          -7.6602    6.2553   -1.3147 C.ar    1  LIG11      -0.0216
     19 C          -8.6344    5.2567   -0.9835 C.ar    1  LIG11      -0.0113
     20 C         -10.0197    5.1402   -1.5935 C.ar    1  LIG11       0.0090
     21 C          -6.2512    9.2435   -2.3585 C.3     1  LIG11       0.0035
     22 C          -6.3810    6.2387   -0.6761 C.ar    1  LIG11      -0.0442
     23 C         -10.7266    3.9675   -1.9973 C.ar    1  LIG11       0.1162
     24 C          -8.2320    4.3612    0.0169 C.ar    1  LIG11      -0.0529
     25 C          -6.0217    5.2786    0.2735 C.ar    1  LIG11       0.0372
     26 C          -6.9684    4.3361    0.6098 C.ar    1  LIG11      -0.0489
     27 C         -10.7448    6.3465   -1.7882 C.ar    1  LIG11      -0.0521
     28 C         -11.9449    4.0645   -2.7261 C.ar    1  LIG11      -0.0345
     29 C         -11.9541    6.4313   -2.4947 C.ar    1  LIG11      -0.0611
     30 C          -4.7240    5.2422    0.9314 C.ar    1  LIG11       0.2271
     31 C         -12.5388    5.2898   -2.9980 C.ar    1  LIG11      -0.0599
     32 C         -10.9458    2.5036    0.9549 C.ar    1  LIG11       0.1837
     33 C         -11.4899    3.7265    1.4306 C.ar    1  LIG11       0.0342
     34 C         -10.7749    3.9661    2.5879 C.ar    1  LIG11       0.1390
     35 C         -12.5446    4.5882    0.8596 C.3     1  LIG11      -0.0330
     36 C          -2.9524    6.1131    1.7916 C.ar    1  LIG11       0.1125
     37 C          -2.9823    4.7668    2.0420 C.ar    1  LIG11       0.0663
     38 C         -10.6966    5.1039    3.5264 C.3     1  LIG11      -0.0034
     39 H         -11.0328    0.8517   -0.1380 H       1  LIG11       0.1753
     40 H          -7.0946    5.5787   -4.0833 H       1  LIG11       0.0364
     41 H          -8.0757    6.7612   -4.9745 H       1  LIG11       0.0364
     42 H          -8.5070    5.1682   -6.7638 H       1  LIG11       0.0235
     43 H          -7.5636    3.9514   -5.8915 H       1  LIG11       0.0235
     44 H          -7.1768    4.3320   -7.5764 H       1  LIG11       0.0235
     45 H          -7.4623    7.4486   -7.3251 H       1  LIG11       0.0235
     46 H          -6.2309    6.5359   -8.2079 H       1  LIG11       0.0235
     47 H          -5.7445    7.7330   -7.0166 H       1  LIG11       0.0235
     48 H          -5.1423    4.4536   -5.2130 H       1  LIG11       0.0235
     49 H          -4.3755    5.9724   -5.6948 H       1  LIG11       0.0235
     50 H          -4.7937    4.7728   -6.9174 H       1  LIG11       0.0235
     51 H          -8.6625    7.1246   -3.0228 H       1  LIG11       0.0514
     52 H          -8.4265    8.2217   -1.6631 H       1  LIG11       0.0514
     53 H          -5.3065    9.5319   -2.8265 H       1  LIG11       0.0429
     54 H          -6.0863    9.1204   -1.2849 H       1  LIG11       0.0429
     55 H          -6.9783   10.0465   -2.5133 H       1  LIG11       0.0429
     56 H          -5.6336    6.9843   -0.9337 H       1  LIG11       0.0628
     57 H          -8.8905    3.5977    0.3761 H       1  LIG11       0.0624
     58 H          -6.7464    3.5593    1.3421 H       1  LIG11       0.0625
     59 H         -10.3727    7.2803   -1.3734 H       1  LIG11       0.0624
     60 H         -12.4602    3.1706   -3.0751 H       1  LIG11       0.0637
     61 H         -12.4291    7.3976   -2.6489 H       1  LIG11       0.0618
     62 H         -13.4665    5.3356   -3.5611 H       1  LIG11       0.0618
     63 H         -12.9911    4.1465   -0.0334 H       1  LIG11       0.0280
     64 H         -12.1485    5.5766    0.6118 H       1  LIG11       0.0280
     65 H         -13.3493    4.7287    1.5889 H       1  LIG11       0.0280
     66 H          -2.2799    6.9225    2.0326 H       1  LIG11       0.1046
     67 H          -2.2620    4.1646    2.5801 H       1  LIG11       0.0862
     68 H          -9.8729    4.9842    4.2371 H       1  LIG11       0.0309
     69 H         -11.6280    5.2056    4.0903 H       1  LIG11       0.0309
     70 H         -10.5255    6.0370    2.9775 H       1  LIG11       0.0309
@<TRIPOS>BOND
     1     1     3    2
     2     1     4    2
     3     1     8    1
     4     1    23    1
     5     2    16    2
     6     5    30   ar
     7     5    36   ar
     8     6    10   ar
     9     6    34   ar
    10     7    16   am
    11     7    17    1
    12     7    21    1
    13     8    32    1
    14     9    30   ar
    15     9    37   ar
    16    10    32   ar
    17    11    12    1
    18    11    13    1
    19    11    14    1
    20    11    15    1
    21    12    16    1
    22    17    18    1
    23    18    19   ar
    24    18    22   ar
    25    19    20    1
    26    19    24   ar
    27    20    23   ar
    28    20    27   ar
    29    22    25   ar
    30    23    28   ar
    31    24    26   ar
    32    25    26   ar
    33    25    30    1
    34    27    29   ar
    35    28    31   ar
    36    29    31   ar
    37    32    33   ar
    38    33    34   ar
    39    33    35    1
    40    34    38    1
    41    36    37   ar
    42     8    39    1
    43    12    40    1
    44    12    41    1
    45    13    42    1
    46    13    43    1
    47    13    44    1
    48    14    45    1
    49    14    46    1
    50    14    47    1
    51    15    48    1
    52    15    49    1
    53    15    50    1
    54    17    51    1
    55    17    52    1
    56    21    53    1
    57    21    54    1
    58    21    55    1
    59    22    56    1
    60    24    57    1
    61    26    58    1
    62    27    59    1
    63    28    60    1
    64    29    61    1
    65    31    62    1
    66    35    63    1
    67    35    64    1
    68    35    65    1
    69    36    66    1
    70    37    67    1
    71    38    68    1
    72    38    69    1
    73    38    70    1
@<TRIPOS>MOLECULE
../1EDN/3STEPMIN_17-21.pdb
 47 48 0 0 0
SMALL
GASTEIGER

@<TRIPOS>ATOM
      1  N         -5.4290    0.8830   -1.1740 N.3    17  LEU17      -0.1231
      2  CA        -6.8230    0.6710   -0.7980 C.3    17  LEU17       0.1693
      3  CB        -6.9230   -0.4370    0.2770 C.3    17  LEU17       0.0284
      4  CG        -6.4950   -1.8450   -0.1910 C.3    17  LEU17       0.0019
      5  CD1       -6.5150   -2.8060    0.9980 C.3    17  LEU17       0.0001
      6  CD2       -7.4310   -2.4140   -1.2600 C.3    17  LEU17       0.0001
      7  C         -7.3990    2.0370   -0.3760 C.2    17  LEU17       0.2592
      8  O         -7.4670    2.9330   -1.2040 O.2    17  LEU17      -0.2718
      9  N         -7.7380    2.2560    0.8970 N.am   18  ASP18      -0.1960
     10  CA        -8.5130    3.4280    1.3730 C.3    18  ASP18       0.1840
     11  CB        -9.0510    3.1310    2.7840 C.3    18  ASP18       0.1450
     12  CG       -10.5470    3.4340    2.8500 C.2    18  ASP18       0.3671
     13  OD1      -11.3300    2.4930    2.5610 O.co2  18  ASP18      -0.2456
     14  OD2      -10.9050    4.5930    3.1470 O.co2  18  ASP18      -0.2456
     15  C         -7.8270    4.8120    1.2910 C.2    18  ASP18       0.2622
     16  O         -8.3890    5.8210    1.7350 O.2    18  ASP18      -0.2715
     17  N         -6.6250    4.8510    0.7010 N.am   19  ILE19      -0.1963
     18  CA        -5.9180    6.0210    0.1680 C.3    19  ILE19       0.1727
     19  CB        -4.3960    5.7260    0.0740 C.3    19  ILE19       0.0290
     20  CG2       -3.6150    6.9530   -0.4300 C.3    19  ILE19       0.0023
     21  CG1       -3.7730    5.2100    1.3920 C.3    19  ILE19       0.0022
     22  CD1       -3.8620    6.1700    2.5820 C.3    19  ILE19       0.0001
     23  C         -6.4970    6.4050   -1.2110 C.2    19  ILE19       0.2616
     24  O         -7.0070    7.5130   -1.3720 O.2    19  ILE19      -0.2715
     25  N         -6.3950    5.4980   -2.1940 N.am   20  ILE20      -0.1963
     26  CA        -6.9990    5.5490   -3.5400 C.3    20  ILE20       0.1727
     27  CB        -6.0900    6.2460   -4.5940 C.3    20  ILE20       0.0290
     28  CG2       -6.7980    6.2490   -5.9680 C.3    20  ILE20       0.0023
     29  CG1       -5.7140    7.6970   -4.2070 C.3    20  ILE20       0.0022
     30  CD1       -4.7810    8.4150   -5.1910 C.3    20  ILE20       0.0001
     31  C         -7.3180    4.1070   -3.9880 C.2    20  ILE20       0.2617
     32  O         -6.4020    3.3070   -4.2100 O.2    20  ILE20      -0.2715
     33  N         -8.6100    3.8210   -4.1620 N.am   21  TRP21      -0.1938
     34  CA        -9.2240    2.5950   -4.7020 C.3    21  TRP21       0.2021
     35  CB        -9.7020    1.6830   -3.5450 C.3    21  TRP21       0.0612
     36  CG       -10.4970    2.2370   -2.3850 C.ar   21  TRP21       0.0007
     37  CD1      -10.6860    1.5470   -1.2340 C.ar   21  TRP21       0.0946
     38  NE1      -11.3350    2.3340   -0.3040 N.ar   21  TRP21      -0.2442
     39  CE2      -11.5720    3.5950   -0.7990 C.ar   21  TRP21       0.0810
     40  CZ2      -12.0950    4.7480   -0.2000 C.ar   21  TRP21       0.0191
     41  CH2      -12.2340    5.9130   -0.9670 C.ar   21  TRP21       0.0015
     42  CZ3      -11.8800    5.8920   -2.3260 C.ar   21  TRP21       0.0001
     43  CE3      -11.3480    4.7280   -2.9100 C.ar   21  TRP21       0.0012
     44  CD2      -11.1270    3.5500   -2.1550 C.ar   21  TRP21       0.0152
     45  C        -10.3230    2.8760   -5.7330 C.2    21  TRP21       0.3845
     46  O        -11.0800    1.9620   -6.0950 O.co2  21  TRP21      -0.2437
     47  OXT      -10.4270    4.0430   -6.2080 O.co2  21  TRP21      -0.2437
@<TRIPOS>BOND
     1    47    45   ar
     2    46    45   ar
     3    28    27    1
     4    45    34    1
     5    30    29    1
     6    34    33    1
     7    34    35    1
     8    27    29    1
     9    27    26    1
    10    32    31    2
    11    33    31   am
    12    31    26    1
    13    35    36    1
    14    26    25    1
    15    43    42   ar
    16    43    44   ar
    17    36    44   ar
    18    36    37   ar
    19    42    41   ar
    20    25    23   am
    21    44    39   ar
    22    24    23    2
    23     6     4    1
    24    37    38   ar
    25    23    18    1
    26     8     7    2
    27     1     2    1
    28    41    40   ar
    29    39    38   ar
    30    39    40   ar
    31     2     7    1
    32     2     3    1
    33    20    19    1
    34     7     9   am
    35     4     3    1
    36     4     5    1
    37    19    18    1
    38    19    21    1
    39    18    17    1
    40    17    15   am
    41     9    10    1
    42    15    10    1
    43    15    16    2
    44    10    11    1
    45    21    22    1
    46    13    12   ar
    47    11    12    1
    48    12    14   ar
