@<TRIPOS>MOLECULE
../1EDN/3STEPMIN_17-21_NOBACKBONE.pdb
 26 23 0 0 0
SMALL
GASTEIGER

@<TRIPOS>ATOM
      1  CB        -6.9230   -0.4370    0.2770 C.3    17  LEU17       0.0000
      2  CG        -6.4950   -1.8450   -0.1910 C.3    17  LEU17       0.0000
      3  CD1       -6.5150   -2.8060    0.9980 C.3    17  LEU17       0.0000
      4  CD2       -7.4310   -2.4140   -1.2600 C.3    17  LEU17       0.0000
      5  CB        -9.0510    3.1310    2.7840 C.3    18  ASP18       0.1258
      6  CG       -10.5470    3.4340    2.8500 C.2    18  ASP18       0.3654
      7  OD1      -11.3300    2.4930    2.5610 O.co2  18  ASP18      -0.2456
      8  OD2      -10.9050    4.5930    3.1470 O.co2  18  ASP18      -0.2456
      9  CB        -4.3960    5.7260    0.0740 C.3    19  ILE19       0.0000
     10  CG2       -3.6150    6.9530   -0.4300 C.3    19  ILE19       0.0000
     11  CG1       -3.7730    5.2100    1.3920 C.3    19  ILE19       0.0000
     12  CD1       -3.8620    6.1700    2.5820 C.3    19  ILE19       0.0000
     13  CB        -6.0900    6.2460   -4.5940 C.3    20  ILE20       0.0000
     14  CG2       -6.7980    6.2490   -5.9680 C.3    20  ILE20       0.0000
     15  CG1       -5.7140    7.6970   -4.2070 C.3    20  ILE20       0.0000
     16  CD1       -4.7810    8.4150   -5.1910 C.3    20  ILE20       0.0000
     17  CB        -9.7020    1.6830   -3.5450 C.3    21  TRP21       0.0327
     18  CG       -10.4970    2.2370   -2.3850 C.ar   21  TRP21      -0.0013
     19  CD1      -10.6860    1.5470   -1.2340 C.ar   21  TRP21       0.0946
     20  NE1      -11.3350    2.3340   -0.3040 N.ar   21  TRP21      -0.2442
     21  CE2      -11.5720    3.5950   -0.7990 C.ar   21  TRP21       0.0810
     22  CZ2      -12.0950    4.7480   -0.2000 C.ar   21  TRP21       0.0191
     23  CH2      -12.2340    5.9130   -0.9670 C.ar   21  TRP21       0.0015
     24  CZ3      -11.8800    5.8920   -2.3260 C.ar   21  TRP21       0.0001
     25  CE3      -11.3480    4.7280   -2.9100 C.ar   21  TRP21       0.0012
     26  CD2      -11.1270    3.5500   -2.1550 C.ar   21  TRP21       0.0152
@<TRIPOS>BOND
     1    14    13    1
     2    16    15    1
     3    13    15    1
     4    17    18    1
     5    25    24   ar
     6    25    26   ar
     7    18    26   ar
     8    18    19   ar
     9    24    23   ar
    10    26    21   ar
    11     4     2    1
    12    19    20   ar
    13    23    22   ar
    14    21    20   ar
    15    21    22   ar
    16    10     9    1
    17     2     1    1
    18     2     3    1
    19     9    11    1
    20    11    12    1
    21     7     6   ar
    22     5     6    1
    23     6     8   ar
@<TRIPOS>MOLECULE
02228316B
 82 86 0 0 0
SMALL
GASTEIGER

@<TRIPOS>ATOM
      1 C          -6.7692    5.6717   -5.1022 C.3     1  LIG11       0.2491
      2 C          -8.1876    5.3217   -4.7049 C.2     1  LIG11       0.3556
      3 N          -6.3909    4.5813   -6.0356 N.2     1  LIG11      -0.0687
      4 C          -6.6816    7.0276   -5.8161 C.3     1  LIG11       0.0059
      5 C          -5.8048    5.7302   -3.9175 C.3     1  LIG11       0.0059
      6 N          -8.4336    4.0812   -5.2343 N.am    1  LIG11      -0.1529
      7 O          -8.9750    6.0498   -4.1211 O.2     1  LIG11      -0.2422
      8 C          -7.4073    3.7706   -6.0428 C.2     1  LIG11       0.2916
      9 C          -5.8500    7.9094   -4.8913 C.3     1  LIG11      -0.0481
     10 C          -4.9091    6.9279   -4.2151 C.3     1  LIG11      -0.0481
     11 C          -9.7541    3.4832   -5.1313 C.3     1  LIG11       0.1137
     12 C          -7.4057    2.6026   -7.0079 C.3     1  LIG11       0.0509
     13 C         -10.1295    3.1202   -3.7096 C.ar    1  LIG11      -0.0073
     14 C          -7.5687    1.1991   -6.4373 C.3     1  LIG11      -0.0424
     15 C         -11.1918    3.7751   -3.0797 C.ar    1  LIG11      -0.0491
     16 C          -9.4246    2.1724   -2.9729 C.ar    1  LIG11      -0.0544
     17 C          -6.5342    0.8235   -5.3805 C.3     1  LIG11      -0.0554
     18 C         -11.5108    3.5602   -1.7182 C.ar    1  LIG11      -0.0138
     19 C          -9.7406    1.9339   -1.6278 C.ar    1  LIG11      -0.0533
     20 C          -6.8492   -0.5488   -4.7995 C.3     1  LIG11      -0.0653
     21 C         -10.7347    2.6594   -0.9470 C.ar    1  LIG11      -0.0106
     22 C         -12.6783    4.3549   -1.1657 C.3     1  LIG11       0.0732
     23 C         -10.9652    2.4419    0.5053 C.ar    1  LIG11       0.0091
     24 O         -12.3012    5.4047   -0.2839 O.3     1  LIG11      -0.3754
     25 C         -10.0764    2.7639    1.5565 C.ar    1  LIG11       0.1162
     26 C         -12.2043    1.8786    0.8889 C.ar    1  LIG11      -0.0521
     27 C         -11.6096    6.4947   -0.8932 C.3     1  LIG11       0.0453
     28 S          -8.3917    3.3151    1.3543 S.O2    1  LIG11       0.0741
     29 C         -10.4764    2.6338    2.9079 C.ar    1  LIG11      -0.0345
     30 C         -12.5882    1.7373    2.2267 C.ar    1  LIG11      -0.0611
     31 C         -12.4492    7.2377   -1.9214 C.3     1  LIG11      -0.0416
     32 N          -7.5161    2.0013    2.0084 N.pl3   1  LIG11      -0.1965
     33 O          -8.0288    3.4764   -0.0322 O.2     1  LIG11      -0.1499
     34 O          -8.1863    4.4008    2.2921 O.2     1  LIG11      -0.1499
     35 C         -11.7301    2.1352    3.2392 C.ar    1  LIG11      -0.0599
     36 C          -7.1650    0.9468    1.1712 C.ar    1  LIG11       0.1837
     37 C          -7.9186   -0.2279    0.9078 C.ar    1  LIG11       0.0342
     38 N          -5.9524    0.8857    0.6205 N.ar    1  LIG11      -0.0614
     39 C          -7.1181   -0.9298    0.0297 C.ar    1  LIG11       0.1390
     40 C          -9.2380   -0.6416    1.4340 C.3     1  LIG11      -0.0330
     41 O          -5.9432   -0.2683   -0.1395 O.2     1  LIG11      -0.3578
     42 C          -7.2617   -2.1957   -0.7144 C.3     1  LIG11      -0.0034
     43 H          -7.6584    7.4846   -6.0089 H       1  LIG11       0.0316
     44 H          -6.1710    6.9316   -6.7823 H       1  LIG11       0.0316
     45 H          -5.2128    4.8171   -3.7942 H       1  LIG11       0.0316
     46 H          -6.3447    5.9050   -2.9790 H       1  LIG11       0.0316
     47 H          -6.4952    8.3903   -4.1467 H       1  LIG11       0.0267
     48 H          -5.3161    8.6934   -5.4365 H       1  LIG11       0.0267
     49 H          -4.1054    6.6393   -4.9028 H       1  LIG11       0.0267
     50 H          -4.4536    7.3428   -3.3110 H       1  LIG11       0.0267
     51 H          -9.8504    2.6083   -5.7735 H       1  LIG11       0.0783
     52 H         -10.4661    4.2196   -5.5234 H       1  LIG11       0.0783
     53 H          -6.4653    2.6399   -7.5745 H       1  LIG11       0.0387
     54 H          -8.2068    2.7864   -7.7348 H       1  LIG11       0.0387
     55 H          -7.4919    0.4892   -7.2710 H       1  LIG11       0.0271
     56 H          -8.5706    1.0598   -6.0265 H       1  LIG11       0.0271
     57 H         -11.7609    4.5122   -3.6451 H       1  LIG11       0.0625
     58 H          -8.5868    1.6396   -3.4096 H       1  LIG11       0.0622
     59 H          -6.5241    1.5602   -4.5712 H       1  LIG11       0.0263
     60 H          -5.5319    0.8123   -5.8234 H       1  LIG11       0.0263
     61 H          -9.1363    1.2067   -1.0960 H       1  LIG11       0.0624
     62 H          -7.8487   -0.5654   -4.3509 H       1  LIG11       0.0230
     63 H          -6.1263   -0.8117   -4.0216 H       1  LIG11       0.0230
     64 H          -6.8157   -1.3202   -5.5752 H       1  LIG11       0.0230
     65 H         -13.3526    3.6897   -0.6188 H       1  LIG11       0.0610
     66 H         -13.3087    4.7443   -1.9733 H       1  LIG11       0.0610
     67 H         -12.9110    1.5622    0.1226 H       1  LIG11       0.0624
     68 H         -10.6607    6.1577   -1.3215 H       1  LIG11       0.0557
     69 H         -11.3631    7.1885   -0.0822 H       1  LIG11       0.0557
     70 H          -9.7999    2.9215    3.7131 H       1  LIG11       0.0637
     71 H         -13.5693    1.3364    2.4710 H       1  LIG11       0.0618
     72 H         -12.5627    6.6542   -2.8399 H       1  LIG11       0.0252
     73 H         -11.9746    8.1850   -2.1931 H       1  LIG11       0.0252
     74 H         -13.4546    7.4367   -1.5384 H       1  LIG11       0.0252
     75 H          -6.7023    2.4239    2.4593 H       1  LIG11       0.1753
     76 H         -12.0288    2.0518    4.2813 H       1  LIG11       0.0618
     77 H          -9.4851   -0.1152    2.3589 H       1  LIG11       0.0280
     78 H          -9.2434   -1.7128    1.6642 H       1  LIG11       0.0280
     79 H         -10.0236   -0.4548    0.6970 H       1  LIG11       0.0280
     80 H          -8.2282   -2.6683   -0.5134 H       1  LIG11       0.0309
     81 H          -6.4737   -2.9006   -0.4334 H       1  LIG11       0.0309
     82 H          -7.1955   -2.0137   -1.7913 H       1  LIG11       0.0309
@<TRIPOS>BOND
     1     1     5    1
     2     1     4    1
     3     1     2    1
     4     1     3    1
     5     2     6   am
     6     2     7    2
     7     3     8    2
     8     4     9    1
     9     5    10    1
    10     6     8    1
    11     6    11    1
    12     8    12    1
    13     9    10    1
    14    11    13    1
    15    12    14    1
    16    13    15   ar
    17    13    16   ar
    18    14    17    1
    19    15    18   ar
    20    16    19   ar
    21    17    20    1
    22    18    21   ar
    23    18    22    1
    24    19    21   ar
    25    21    23    1
    26    22    24    1
    27    23    26   ar
    28    23    25   ar
    29    24    27    1
    30    25    29   ar
    31    25    28    1
    32    26    30   ar
    33    27    31    1
    34    28    34    2
    35    28    33    2
    36    28    32    1
    37    29    35   ar
    38    30    35   ar
    39    32    36    1
    40    36    37   ar
    41    36    38   ar
    42    37    39   ar
    43    37    40    1
    44    38    41   ar
    45    39    41   ar
    46    39    42    1
    47     4    43    1
    48     4    44    1
    49     5    45    1
    50     5    46    1
    51     9    47    1
    52     9    48    1
    53    10    49    1
    54    10    50    1
    55    11    51    1
    56    11    52    1
    57    12    53    1
    58    12    54    1
    59    14    55    1
    60    14    56    1
    61    15    57    1
    62    16    58    1
    63    17    59    1
    64    17    60    1
    65    19    61    1
    66    20    62    1
    67    20    63    1
    68    20    64    1
    69    22    65    1
    70    22    66    1
    71    26    67    1
    72    27    68    1
    73    27    69    1
    74    29    70    1
    75    30    71    1
    76    31    72    1
    77    31    73    1
    78    31    74    1
    79    32    75    1
    80    35    76    1
    81    40    77    1
    82    40    78    1
    83    40    79    1
    84    42    80    1
    85    42    81    1
    86    42    82    1
@<TRIPOS>MOLECULE
../1EDN/3STEPMIN_17-21.pdb
 47 48 0 0 0
SMALL
GASTEIGER

@<TRIPOS>ATOM
      1  N         -5.4290    0.8830   -1.1740 N.3    17  LEU17      -0.1231
      2  CA        -6.8230    0.6710   -0.7980 C.3    17  LEU17       0.1693
      3  CB        -6.9230   -0.4370    0.2770 C.3    17  LEU17       0.0284
      4  CG        -6.4950   -1.8450   -0.1910 C.3    17  LEU17       0.0019
      5  CD1       -6.5150   -2.8060    0.9980 C.3    17  LEU17       0.0001
      6  CD2       -7.4310   -2.4140   -1.2600 C.3    17  LEU17       0.0001
      7  C         -7.3990    2.0370   -0.3760 C.2    17  LEU17       0.2592
      8  O         -7.4670    2.9330   -1.2040 O.2    17  LEU17      -0.2718
      9  N         -7.7380    2.2560    0.8970 N.am   18  ASP18      -0.1960
     10  CA        -8.5130    3.4280    1.3730 C.3    18  ASP18       0.1840
     11  CB        -9.0510    3.1310    2.7840 C.3    18  ASP18       0.1450
     12  CG       -10.5470    3.4340    2.8500 C.2    18  ASP18       0.3671
     13  OD1      -11.3300    2.4930    2.5610 O.co2  18  ASP18      -0.2456
     14  OD2      -10.9050    4.5930    3.1470 O.co2  18  ASP18      -0.2456
     15  C         -7.8270    4.8120    1.2910 C.2    18  ASP18       0.2622
     16  O         -8.3890    5.8210    1.7350 O.2    18  ASP18      -0.2715
     17  N         -6.6250    4.8510    0.7010 N.am   19  ILE19      -0.1963
     18  CA        -5.9180    6.0210    0.1680 C.3    19  ILE19       0.1727
     19  CB        -4.3960    5.7260    0.0740 C.3    19  ILE19       0.0290
     20  CG2       -3.6150    6.9530   -0.4300 C.3    19  ILE19       0.0023
     21  CG1       -3.7730    5.2100    1.3920 C.3    19  ILE19       0.0022
     22  CD1       -3.8620    6.1700    2.5820 C.3    19  ILE19       0.0001
     23  C         -6.4970    6.4050   -1.2110 C.2    19  ILE19       0.2616
     24  O         -7.0070    7.5130   -1.3720 O.2    19  ILE19      -0.2715
     25  N         -6.3950    5.4980   -2.1940 N.am   20  ILE20      -0.1963
     26  CA        -6.9990    5.5490   -3.5400 C.3    20  ILE20       0.1727
     27  CB        -6.0900    6.2460   -4.5940 C.3    20  ILE20       0.0290
     28  CG2       -6.7980    6.2490   -5.9680 C.3    20  ILE20       0.0023
     29  CG1       -5.7140    7.6970   -4.2070 C.3    20  ILE20       0.0022
     30  CD1       -4.7810    8.4150   -5.1910 C.3    20  ILE20       0.0001
     31  C         -7.3180    4.1070   -3.9880 C.2    20  ILE20       0.2617
     32  O         -6.4020    3.3070   -4.2100 O.2    20  ILE20      -0.2715
     33  N         -8.6100    3.8210   -4.1620 N.am   21  TRP21      -0.1938
     34  CA        -9.2240    2.5950   -4.7020 C.3    21  TRP21       0.2021
     35  CB        -9.7020    1.6830   -3.5450 C.3    21  TRP21       0.0612
     36  CG       -10.4970    2.2370   -2.3850 C.ar   21  TRP21       0.0007
     37  CD1      -10.6860    1.5470   -1.2340 C.ar   21  TRP21       0.0946
     38  NE1      -11.3350    2.3340   -0.3040 N.ar   21  TRP21      -0.2442
     39  CE2      -11.5720    3.5950   -0.7990 C.ar   21  TRP21       0.0810
     40  CZ2      -12.0950    4.7480   -0.2000 C.ar   21  TRP21       0.0191
     41  CH2      -12.2340    5.9130   -0.9670 C.ar   21  TRP21       0.0015
     42  CZ3      -11.8800    5.8920   -2.3260 C.ar   21  TRP21       0.0001
     43  CE3      -11.3480    4.7280   -2.9100 C.ar   21  TRP21       0.0012
     44  CD2      -11.1270    3.5500   -2.1550 C.ar   21  TRP21       0.0152
     45  C        -10.3230    2.8760   -5.7330 C.2    21  TRP21       0.3845
     46  O        -11.0800    1.9620   -6.0950 O.co2  21  TRP21      -0.2437
     47  OXT      -10.4270    4.0430   -6.2080 O.co2  21  TRP21      -0.2437
@<TRIPOS>BOND
     1    47    45   ar
     2    46    45   ar
     3    28    27    1
     4    45    34    1
     5    30    29    1
     6    34    33    1
     7    34    35    1
     8    27    29    1
     9    27    26    1
    10    32    31    2
    11    33    31   am
    12    31    26    1
    13    35    36    1
    14    26    25    1
    15    43    42   ar
    16    43    44   ar
    17    36    44   ar
    18    36    37   ar
    19    42    41   ar
    20    25    23   am
    21    44    39   ar
    22    24    23    2
    23     6     4    1
    24    37    38   ar
    25    23    18    1
    26     8     7    2
    27     1     2    1
    28    41    40   ar
    29    39    38   ar
    30    39    40   ar
    31     2     7    1
    32     2     3    1
    33    20    19    1
    34     7     9   am
    35     4     3    1
    36     4     5    1
    37    19    18    1
    38    19    21    1
    39    18    17    1
    40    17    15   am
    41     9    10    1
    42    15    10    1
    43    15    16    2
    44    10    11    1
    45    21    22    1
    46    13    12   ar
    47    11    12    1
    48    12    14   ar
