@<TRIPOS>MOLECULE
../1EDN/3STEPMIN_17-21_NOBACKBONE.pdb
 26 23 0 0 0
SMALL
GASTEIGER

@<TRIPOS>ATOM
      1  CB        -6.9230   -0.4370    0.2770 C.3    17  LEU17       0.0000
      2  CG        -6.4950   -1.8450   -0.1910 C.3    17  LEU17       0.0000
      3  CD1       -6.5150   -2.8060    0.9980 C.3    17  LEU17       0.0000
      4  CD2       -7.4310   -2.4140   -1.2600 C.3    17  LEU17       0.0000
      5  CB        -9.0510    3.1310    2.7840 C.3    18  ASP18       0.1258
      6  CG       -10.5470    3.4340    2.8500 C.2    18  ASP18       0.3654
      7  OD1      -11.3300    2.4930    2.5610 O.co2  18  ASP18      -0.2456
      8  OD2      -10.9050    4.5930    3.1470 O.co2  18  ASP18      -0.2456
      9  CB        -4.3960    5.7260    0.0740 C.3    19  ILE19       0.0000
     10  CG2       -3.6150    6.9530   -0.4300 C.3    19  ILE19       0.0000
     11  CG1       -3.7730    5.2100    1.3920 C.3    19  ILE19       0.0000
     12  CD1       -3.8620    6.1700    2.5820 C.3    19  ILE19       0.0000
     13  CB        -6.0900    6.2460   -4.5940 C.3    20  ILE20       0.0000
     14  CG2       -6.7980    6.2490   -5.9680 C.3    20  ILE20       0.0000
     15  CG1       -5.7140    7.6970   -4.2070 C.3    20  ILE20       0.0000
     16  CD1       -4.7810    8.4150   -5.1910 C.3    20  ILE20       0.0000
     17  CB        -9.7020    1.6830   -3.5450 C.3    21  TRP21       0.0327
     18  CG       -10.4970    2.2370   -2.3850 C.ar   21  TRP21      -0.0013
     19  CD1      -10.6860    1.5470   -1.2340 C.ar   21  TRP21       0.0946
     20  NE1      -11.3350    2.3340   -0.3040 N.ar   21  TRP21      -0.2442
     21  CE2      -11.5720    3.5950   -0.7990 C.ar   21  TRP21       0.0810
     22  CZ2      -12.0950    4.7480   -0.2000 C.ar   21  TRP21       0.0191
     23  CH2      -12.2340    5.9130   -0.9670 C.ar   21  TRP21       0.0015
     24  CZ3      -11.8800    5.8920   -2.3260 C.ar   21  TRP21       0.0001
     25  CE3      -11.3480    4.7280   -2.9100 C.ar   21  TRP21       0.0012
     26  CD2      -11.1270    3.5500   -2.1550 C.ar   21  TRP21       0.0152
@<TRIPOS>BOND
     1    14    13    1
     2    16    15    1
     3    13    15    1
     4    17    18    1
     5    25    24   ar
     6    25    26   ar
     7    18    26   ar
     8    18    19   ar
     9    24    23   ar
    10    26    21   ar
    11     4     2    1
    12    19    20   ar
    13    23    22   ar
    14    21    20   ar
    15    21    22   ar
    16    10     9    1
    17     2     1    1
    18     2     3    1
    19     9    11    1
    20    11    12    1
    21     7     6   ar
    22     5     6    1
    23     6     8   ar
@<TRIPOS>MOLECULE
16219006
 85 88 0 0 0
SMALL
GASTEIGER

@<TRIPOS>ATOM
      1 O          -8.0129    1.3943    2.6034 O.2     1  PRO11      -0.2738
      2 O         -10.6595    1.7267   -0.7949 O.2     5  ASP55      -0.2735
      3 O          -7.5547    0.6892   -1.9692 O.2     2  VAL22      -0.2738
      4 O          -9.4719    6.4346    0.0016 O.2     4  TRP44      -0.2738
      5 O          -6.0970    4.3231    0.0464 O.2     3  LEU33      -0.2738
      6 OD1       -11.3016    5.6193   -3.6251 O.co2   5  ASP55      -0.5497
      7 OD2       -13.1088    5.9696   -2.2622 O.co2   5  ASP55      -0.5497
      8 N         -10.5913    2.7820    1.1976 N.am    1  PRO11      -0.2884
      9 N          -8.6368    0.2958    0.6930 N.am    2  VAL22      -0.3022
     10 N          -9.6539    4.5461   -1.2964 N.am    5  ASP55      -0.3021
     11 N          -5.8988    1.6807   -0.7299 N.am    3  LEU33      -0.3025
     12 N          -7.0328    4.7455   -2.0062 N.am    4  TRP44      -0.3022
     13 NE1        -4.6805    8.0425   -4.0245 N.ar    4  TRP44      -0.3604
     14 CA        -10.3656    1.5373    1.9269 C.3     1  PRO11       0.1023
     15 CB        -10.7404    1.8810    3.3690 C.3     1  PRO11      -0.0243
     16 CG        -10.4344    3.3716    3.4755 C.3     1  PRO11      -0.0350
     17 CD        -10.7958    3.9065    2.0993 C.3     1  PRO11       0.0156
     18 C          -8.8914    1.0806    1.8027 C.2     1  PRO11       0.2342
     19 C         -10.7874    2.7862   -0.1665 C.2     5  ASP55       0.2369
     20 CA         -7.2697   -0.0687    0.3219 C.3     2  VAL22       0.1017
     21 CA        -10.9938    4.1471   -0.8774 C.3     5  ASP55       0.1047
     22 CB         -7.1393   -1.5715   -0.0163 C.3     2  VAL22      -0.0197
     23 CA         -5.6682    2.7295   -1.7219 C.3     3  LEU33       0.0996
     24 C          -6.9354    0.7893   -0.9111 C.2     2  VAL22       0.2342
     25 CB        -11.9087    3.9595   -2.0792 C.3     5  ASP55       0.0138
     26 CA         -7.6910    5.9883   -1.5827 C.3     4  TRP44       0.1034
     27 CB         -4.1662    2.9248   -1.9573 C.3     3  LEU33      -0.0236
     28 CG         -3.8164    3.9838   -3.0225 C.3     3  LEU33      -0.0446
     29 C          -9.0081    5.6745   -0.8463 C.2     4  TRP44       0.2343
     30 CB         -7.9682    6.9086   -2.7816 C.3     4  TRP44       0.0013
     31 C          -6.2876    4.0018   -1.1264 C.2     3  LEU33       0.2340
     32 CG1        -5.7171   -1.9165   -0.4806 C.3     2  VAL22      -0.0605
     33 CG2        -7.4880   -2.4463    1.1932 C.3     2  VAL22      -0.0605
     34 CG         -6.7123    7.2613   -3.5380 C.ar    4  TRP44      -0.0201
     35 CG        -12.1234    5.3216   -2.7101 C.2     5  ASP55       0.0440
     36 CD1        -4.3605    3.6208   -4.4047 C.3     3  LEU33      -0.0626
     37 CD2        -2.2988    4.1637   -3.0982 C.3     3  LEU33      -0.0626
     38 CD2        -6.3903    6.9063   -4.8895 C.ar    4  TRP44       0.0029
     39 CD1        -5.6335    7.9725   -3.0467 C.ar    4  TRP44       0.0060
     40 CE2        -5.1121    7.3986   -5.1597 C.ar    4  TRP44       0.0467
     41 CE3        -7.0655    6.2029   -5.9087 C.ar    4  TRP44      -0.0523
     42 CZ2        -4.4726    7.2182   -6.3928 C.ar    4  TRP44      -0.0378
     43 CZ3        -6.4411    6.0145   -7.1481 C.ar    4  TRP44      -0.0611
     44 CH2        -5.1625    6.5141   -7.3836 C.ar    4  TRP44      -0.0598
     45 H          -9.3049    0.4064   -0.0776 H       2  VAL22       0.1495
     46 H          -9.2632    4.0434   -2.0812 H       5  ASP55       0.1495
     47 H          -5.7184    1.9631    0.2315 H       3  LEU33       0.1495
     48 H          -7.2370    4.3944   -2.9342 H       4  TRP44       0.1495
     49 HE1        -3.7849    8.4987   -3.9308 H       4  TRP44       0.1653
     50 HA        -11.0131    0.7414    1.5393 H       1  PRO11       0.0597
     51 HB1       -11.8156    1.7215    3.5157 H       1  PRO11       0.0288
     52 HB2       -10.2052    1.2897    4.1174 H       1  PRO11       0.0288
     53 HG1       -10.9965    3.8613    4.2755 H       1  PRO11       0.0281
     54 HG2        -9.3668    3.5231    3.6695 H       1  PRO11       0.0281
     55 HD1       -10.1719    4.7568    1.8130 H       1  PRO11       0.0465
     56 HD2       -11.8502    4.1942    2.0485 H       1  PRO11       0.0465
     57 HA         -6.5824    0.1773    1.1395 H       2  VAL22       0.0597
     58 HA        -11.4142    4.8883   -0.1931 H       5  ASP55       0.0598
     59 HB         -7.8321   -1.8263   -0.8290 H       2  VAL22       0.0318
     60 HA         -6.1735    2.4647   -2.6544 H       3  LEU33       0.0594
     61 HB1       -11.4847    3.2703   -2.8191 H       5  ASP55       0.0348
     62 HB2       -12.8738    3.5425   -1.7662 H       5  ASP55       0.0348
     63 HA         -7.0309    6.4842   -0.8601 H       4  TRP44       0.0598
     64 HB1        -3.6858    3.2041   -1.0094 H       3  LEU33       0.0290
     65 HB2        -3.7246    1.9614   -2.2463 H       3  LEU33       0.0290
     66 HG         -4.2429    4.9486   -2.7247 H       3  LEU33       0.0296
     67 HB1        -8.6808    6.4281   -3.4619 H       4  TRP44       0.0337
     68 HB2        -8.4483    7.8338   -2.4390 H       4  TRP44       0.0337
     69 HG11       -4.9762   -1.6540    0.2828 H       2  VAL22       0.0233
     70 HG12       -5.6235   -2.9884   -0.6862 H       2  VAL22       0.0233
     71 HG13       -5.4557   -1.3872   -1.4024 H       2  VAL22       0.0233
     72 HG21       -6.8311   -2.2284    2.0424 H       2  VAL22       0.0233
     73 HG22       -8.5227   -2.2905    1.5131 H       2  VAL22       0.0233
     74 HG23       -7.3770   -3.5084    0.9474 H       2  VAL22       0.0233
     75 HD11       -4.0341    2.6213   -4.7101 H       3  LEU33       0.0232
     76 HD12       -5.4539    3.6419   -4.4240 H       3  LEU33       0.0232
     77 HD13       -4.0104    4.3323   -5.1588 H       3  LEU33       0.0232
     78 HD21       -1.8045    3.2416   -3.4218 H       3  LEU33       0.0232
     79 HD22       -2.0381    4.9562   -3.8080 H       3  LEU33       0.0232
     80 HD23       -1.8905    4.4451   -2.1219 H       3  LEU33       0.0232
     81 HD1        -5.4631    8.4193   -2.0761 H       4  TRP44       0.0810
     82 HE3        -8.0696    5.8186   -5.7412 H       4  TRP44       0.0624
     83 HZ2        -3.4782    7.6092   -6.5784 H       4  TRP44       0.0638
     84 HZ3        -6.9680    5.4767   -7.9324 H       4  TRP44       0.0618
     85 HH2        -4.6966    6.3586   -8.3535 H       4  TRP44       0.0618
@<TRIPOS>BOND
     1     1    18    2
     2     2    19    2
     3     3    24    2
     4     4    29    2
     5     5    31    2
     6     6    35   ar
     7     7    35   ar
     8     8    14    1
     9     8    17    1
    10     8    19   am
    11     9    18   am
    12     9    20    1
    13    10    21    1
    14    10    29   am
    15    11    23    1
    16    11    24   am
    17    12    26    1
    18    12    31   am
    19    13    39   ar
    20    13    40   ar
    21    14    15    1
    22    14    18    1
    23    15    16    1
    24    16    17    1
    25    19    21    1
    26    20    22    1
    27    20    24    1
    28    21    25    1
    29    22    32    1
    30    22    33    1
    31    23    27    1
    32    23    31    1
    33    25    35    1
    34    26    29    1
    35    26    30    1
    36    27    28    1
    37    28    36    1
    38    28    37    1
    39    30    34    1
    40    34    38   ar
    41    34    39   ar
    42    38    40   ar
    43    38    41   ar
    44    40    42   ar
    45    41    43   ar
    46    42    44   ar
    47    43    44   ar
    48     9    45    1
    49    10    46    1
    50    11    47    1
    51    12    48    1
    52    13    49    1
    53    14    50    1
    54    15    51    1
    55    15    52    1
    56    16    53    1
    57    16    54    1
    58    17    55    1
    59    17    56    1
    60    20    57    1
    61    21    58    1
    62    22    59    1
    63    23    60    1
    64    25    61    1
    65    25    62    1
    66    26    63    1
    67    27    64    1
    68    27    65    1
    69    28    66    1
    70    30    67    1
    71    30    68    1
    72    32    69    1
    73    32    70    1
    74    32    71    1
    75    33    72    1
    76    33    73    1
    77    33    74    1
    78    36    75    1
    79    36    76    1
    80    36    77    1
    81    37    78    1
    82    37    79    1
    83    37    80    1
    84    39    81    1
    85    41    82    1
    86    42    83    1
    87    43    84    1
    88    44    85    1
@<TRIPOS>MOLECULE
../1EDN/3STEPMIN_17-21.pdb
 47 48 0 0 0
SMALL
GASTEIGER

@<TRIPOS>ATOM
      1  N         -5.4290    0.8830   -1.1740 N.3    17  LEU17      -0.1231
      2  CA        -6.8230    0.6710   -0.7980 C.3    17  LEU17       0.1693
      3  CB        -6.9230   -0.4370    0.2770 C.3    17  LEU17       0.0284
      4  CG        -6.4950   -1.8450   -0.1910 C.3    17  LEU17       0.0019
      5  CD1       -6.5150   -2.8060    0.9980 C.3    17  LEU17       0.0001
      6  CD2       -7.4310   -2.4140   -1.2600 C.3    17  LEU17       0.0001
      7  C         -7.3990    2.0370   -0.3760 C.2    17  LEU17       0.2592
      8  O         -7.4670    2.9330   -1.2040 O.2    17  LEU17      -0.2718
      9  N         -7.7380    2.2560    0.8970 N.am   18  ASP18      -0.1960
     10  CA        -8.5130    3.4280    1.3730 C.3    18  ASP18       0.1840
     11  CB        -9.0510    3.1310    2.7840 C.3    18  ASP18       0.1450
     12  CG       -10.5470    3.4340    2.8500 C.2    18  ASP18       0.3671
     13  OD1      -11.3300    2.4930    2.5610 O.co2  18  ASP18      -0.2456
     14  OD2      -10.9050    4.5930    3.1470 O.co2  18  ASP18      -0.2456
     15  C         -7.8270    4.8120    1.2910 C.2    18  ASP18       0.2622
     16  O         -8.3890    5.8210    1.7350 O.2    18  ASP18      -0.2715
     17  N         -6.6250    4.8510    0.7010 N.am   19  ILE19      -0.1963
     18  CA        -5.9180    6.0210    0.1680 C.3    19  ILE19       0.1727
     19  CB        -4.3960    5.7260    0.0740 C.3    19  ILE19       0.0290
     20  CG2       -3.6150    6.9530   -0.4300 C.3    19  ILE19       0.0023
     21  CG1       -3.7730    5.2100    1.3920 C.3    19  ILE19       0.0022
     22  CD1       -3.8620    6.1700    2.5820 C.3    19  ILE19       0.0001
     23  C         -6.4970    6.4050   -1.2110 C.2    19  ILE19       0.2616
     24  O         -7.0070    7.5130   -1.3720 O.2    19  ILE19      -0.2715
     25  N         -6.3950    5.4980   -2.1940 N.am   20  ILE20      -0.1963
     26  CA        -6.9990    5.5490   -3.5400 C.3    20  ILE20       0.1727
     27  CB        -6.0900    6.2460   -4.5940 C.3    20  ILE20       0.0290
     28  CG2       -6.7980    6.2490   -5.9680 C.3    20  ILE20       0.0023
     29  CG1       -5.7140    7.6970   -4.2070 C.3    20  ILE20       0.0022
     30  CD1       -4.7810    8.4150   -5.1910 C.3    20  ILE20       0.0001
     31  C         -7.3180    4.1070   -3.9880 C.2    20  ILE20       0.2617
     32  O         -6.4020    3.3070   -4.2100 O.2    20  ILE20      -0.2715
     33  N         -8.6100    3.8210   -4.1620 N.am   21  TRP21      -0.1938
     34  CA        -9.2240    2.5950   -4.7020 C.3    21  TRP21       0.2021
     35  CB        -9.7020    1.6830   -3.5450 C.3    21  TRP21       0.0612
     36  CG       -10.4970    2.2370   -2.3850 C.ar   21  TRP21       0.0007
     37  CD1      -10.6860    1.5470   -1.2340 C.ar   21  TRP21       0.0946
     38  NE1      -11.3350    2.3340   -0.3040 N.ar   21  TRP21      -0.2442
     39  CE2      -11.5720    3.5950   -0.7990 C.ar   21  TRP21       0.0810
     40  CZ2      -12.0950    4.7480   -0.2000 C.ar   21  TRP21       0.0191
     41  CH2      -12.2340    5.9130   -0.9670 C.ar   21  TRP21       0.0015
     42  CZ3      -11.8800    5.8920   -2.3260 C.ar   21  TRP21       0.0001
     43  CE3      -11.3480    4.7280   -2.9100 C.ar   21  TRP21       0.0012
     44  CD2      -11.1270    3.5500   -2.1550 C.ar   21  TRP21       0.0152
     45  C        -10.3230    2.8760   -5.7330 C.2    21  TRP21       0.3845
     46  O        -11.0800    1.9620   -6.0950 O.co2  21  TRP21      -0.2437
     47  OXT      -10.4270    4.0430   -6.2080 O.co2  21  TRP21      -0.2437
@<TRIPOS>BOND
     1    47    45   ar
     2    46    45   ar
     3    28    27    1
     4    45    34    1
     5    30    29    1
     6    34    33    1
     7    34    35    1
     8    27    29    1
     9    27    26    1
    10    32    31    2
    11    33    31   am
    12    31    26    1
    13    35    36    1
    14    26    25    1
    15    43    42   ar
    16    43    44   ar
    17    36    44   ar
    18    36    37   ar
    19    42    41   ar
    20    25    23   am
    21    44    39   ar
    22    24    23    2
    23     6     4    1
    24    37    38   ar
    25    23    18    1
    26     8     7    2
    27     1     2    1
    28    41    40   ar
    29    39    38   ar
    30    39    40   ar
    31     2     7    1
    32     2     3    1
    33    20    19    1
    34     7     9   am
    35     4     3    1
    36     4     5    1
    37    19    18    1
    38    19    21    1
    39    18    17    1
    40    17    15   am
    41     9    10    1
    42    15    10    1
    43    15    16    2
    44    10    11    1
    45    21    22    1
    46    13    12   ar
    47    11    12    1
    48    12    14   ar
