@<TRIPOS>MOLECULE
../1EDN/3STEPMIN_17-21_NOBACKBONE.pdb
 26 23 0 0 0
SMALL
GASTEIGER

@<TRIPOS>ATOM
      1  CB        -6.9230   -0.4370    0.2770 C.3    17  LEU17       0.0000
      2  CG        -6.4950   -1.8450   -0.1910 C.3    17  LEU17       0.0000
      3  CD1       -6.5150   -2.8060    0.9980 C.3    17  LEU17       0.0000
      4  CD2       -7.4310   -2.4140   -1.2600 C.3    17  LEU17       0.0000
      5  CB        -9.0510    3.1310    2.7840 C.3    18  ASP18       0.1258
      6  CG       -10.5470    3.4340    2.8500 C.2    18  ASP18       0.3654
      7  OD1      -11.3300    2.4930    2.5610 O.co2  18  ASP18      -0.2456
      8  OD2      -10.9050    4.5930    3.1470 O.co2  18  ASP18      -0.2456
      9  CB        -4.3960    5.7260    0.0740 C.3    19  ILE19       0.0000
     10  CG2       -3.6150    6.9530   -0.4300 C.3    19  ILE19       0.0000
     11  CG1       -3.7730    5.2100    1.3920 C.3    19  ILE19       0.0000
     12  CD1       -3.8620    6.1700    2.5820 C.3    19  ILE19       0.0000
     13  CB        -6.0900    6.2460   -4.5940 C.3    20  ILE20       0.0000
     14  CG2       -6.7980    6.2490   -5.9680 C.3    20  ILE20       0.0000
     15  CG1       -5.7140    7.6970   -4.2070 C.3    20  ILE20       0.0000
     16  CD1       -4.7810    8.4150   -5.1910 C.3    20  ILE20       0.0000
     17  CB        -9.7020    1.6830   -3.5450 C.3    21  TRP21       0.0327
     18  CG       -10.4970    2.2370   -2.3850 C.ar   21  TRP21      -0.0013
     19  CD1      -10.6860    1.5470   -1.2340 C.ar   21  TRP21       0.0946
     20  NE1      -11.3350    2.3340   -0.3040 N.ar   21  TRP21      -0.2442
     21  CE2      -11.5720    3.5950   -0.7990 C.ar   21  TRP21       0.0810
     22  CZ2      -12.0950    4.7480   -0.2000 C.ar   21  TRP21       0.0191
     23  CH2      -12.2340    5.9130   -0.9670 C.ar   21  TRP21       0.0015
     24  CZ3      -11.8800    5.8920   -2.3260 C.ar   21  TRP21       0.0001
     25  CE3      -11.3480    4.7280   -2.9100 C.ar   21  TRP21       0.0012
     26  CD2      -11.1270    3.5500   -2.1550 C.ar   21  TRP21       0.0152
@<TRIPOS>BOND
     1    14    13    1
     2    16    15    1
     3    13    15    1
     4    17    18    1
     5    25    24   ar
     6    25    26   ar
     7    18    26   ar
     8    18    19   ar
     9    24    23   ar
    10    26    21   ar
    11     4     2    1
    12    19    20   ar
    13    23    22   ar
    14    21    20   ar
    15    21    22   ar
    16    10     9    1
    17     2     1    1
    18     2     3    1
    19     9    11    1
    20    11    12    1
    21     7     6   ar
    22     5     6    1
    23     6     8   ar
@<TRIPOS>MOLECULE
01012527H
 86 88 0 0 0
SMALL
GASTEIGER

@<TRIPOS>ATOM
      1 C         -11.1850    2.6118   -2.0682 C.3     1  LIG11       0.0531
      2 C         -10.6404    3.9827   -2.4509 C.3     1  LIG11      -0.0111
      3 C         -10.2808    2.0098   -0.9903 C.3     1  LIG11       0.0375
      4 C         -10.9832    1.9017   -3.4047 C.2     1  LIG11       0.0509
      5 N          -9.3734    4.1726   -1.6387 N.4     1  LIG11       0.2448
      6 C         -11.6005    5.1991   -2.4123 C.3     1  LIG11      -0.0039
      7 C         -10.9643    2.0032    0.3717 C.ar    1  LIG11      -0.0313
      8 C          -8.9719    2.7833   -1.1486 C.3     1  LIG11      -0.0234
      9 O          -9.8140    1.4761   -3.6147 O.co2   1  LIG11      -0.5493
     10 O         -11.9750    1.9649   -4.1737 O.co2   1  LIG11      -0.5493
     11 C          -8.2633    4.8252   -2.4629 C.3     1  LIG11       0.0465
     12 C         -12.3330    5.7611   -1.1549 C.3     1  LIG11      -0.0298
     13 C         -12.0636    1.1381    0.5378 C.ar    1  LIG11      -0.0122
     14 C         -10.5814    2.8092    1.4650 C.ar    1  LIG11      -0.0124
     15 C          -7.0041    5.1286   -1.6464 C.2     1  LIG11       0.2608
     16 C         -13.1358    7.0467   -1.5681 C.3     1  LIG11      -0.0479
     17 C         -11.3483    6.2173   -0.0631 C.3     1  LIG11      -0.0596
     18 C         -13.3136    4.7498   -0.5468 C.3     1  LIG11      -0.0596
     19 C         -12.7420    1.1398    1.7394 C.ar    1  LIG11       0.1702
     20 C         -11.3051    2.8178    2.6736 C.ar    1  LIG11       0.1656
     21 N          -5.8622    5.5443   -2.3253 N.am    1  LIG11      -0.2971
     22 O          -7.0342    4.9917   -0.4183 O.2     1  LIG11      -0.2697
     23 C         -14.2755    6.8444   -2.5752 C.3     1  LIG11      -0.0554
     24 C         -12.3846    1.9603    2.7847 C.ar    1  LIG11       0.2075
     25 O         -13.8241    0.3637    2.0182 O.3     1  LIG11      -0.4525
     26 O         -10.8367    3.7032    3.6027 O.3     1  LIG11      -0.4913
     27 C          -5.7972    5.8360   -3.7679 C.3     1  LIG11       0.0148
     28 C          -4.6115    5.6326   -1.5620 C.3     1  LIG11       0.0148
     29 C         -15.0363    8.1420   -2.8117 C.3     1  LIG11      -0.0653
     30 O         -13.2123    1.7877    3.8536 O.3     1  LIG11      -0.4489
     31 C         -14.1109    0.7732    3.3654 C.3     1  LIG11       0.2334
     32 C         -11.6728    3.9559    4.7261 C.3     1  LIG11       0.0790
     33 C          -5.3595    7.2733   -4.0649 C.3     1  LIG11      -0.0374
     34 C          -4.5257    6.8972   -0.7030 C.3     1  LIG11      -0.0374
     35 C          -5.4096    7.5821   -5.5611 C.3     1  LIG11      -0.0545
     36 C          -3.1609    7.0772   -0.0354 C.3     1  LIG11      -0.0545
     37 C          -4.8939    8.9828   -5.8552 C.3     1  LIG11      -0.0652
     38 C          -2.8017    5.9542    0.9255 C.3     1  LIG11      -0.0652
     39 H         -12.2509    2.6057   -1.8283 H       1  LIG11       0.0424
     40 H         -10.2891    3.9933   -3.4938 H       1  LIG11       0.0858
     41 H         -10.0556    0.9519   -1.1868 H       1  LIG11       0.0409
     42 H          -9.5194    4.7421   -0.8039 H       1  LIG11       0.2042
     43 H         -11.0460    6.0407   -2.8530 H       1  LIG11       0.0325
     44 H         -12.3747    4.9570   -3.1529 H       1  LIG11       0.0325
     45 H          -8.3933    2.8886   -0.2282 H       1  LIG11       0.0821
     46 H          -8.3246    2.3383   -1.9107 H       1  LIG11       0.0821
     47 H          -8.0290    4.1405   -3.2845 H       1  LIG11       0.0913
     48 H          -8.6682    5.7690   -2.8401 H       1  LIG11       0.0913
     49 H         -12.3959    0.4858   -0.2669 H       1  LIG11       0.0658
     50 H          -9.7275    3.4784    1.4017 H       1  LIG11       0.0658
     51 H         -13.5637    7.5012   -0.6636 H       1  LIG11       0.0270
     52 H         -12.4363    7.7898   -1.9748 H       1  LIG11       0.0270
     53 H         -10.8855    5.3747    0.4495 H       1  LIG11       0.0235
     54 H         -10.5570    6.8503   -0.4797 H       1  LIG11       0.0235
     55 H         -11.8584    6.7983    0.7146 H       1  LIG11       0.0235
     56 H         -12.7921    3.9571   -0.0158 H       1  LIG11       0.0235
     57 H         -13.9759    5.2298    0.1831 H       1  LIG11       0.0235
     58 H         -13.9418    4.2803   -1.3104 H       1  LIG11       0.0235
     59 H         -13.8841    6.4922   -3.5345 H       1  LIG11       0.0263
     60 H         -14.9841    6.0938   -2.2113 H       1  LIG11       0.0263
     61 H          -5.0952    5.1216   -4.2141 H       1  LIG11       0.0464
     62 H          -6.7686    5.6625   -4.2361 H       1  LIG11       0.0464
     63 H          -4.5535    4.7445   -0.9219 H       1  LIG11       0.0464
     64 H          -3.7667    5.5768   -2.2584 H       1  LIG11       0.0464
     65 H         -14.3760    8.9172   -3.2127 H       1  LIG11       0.0230
     66 H         -15.8468    7.9797   -3.5292 H       1  LIG11       0.0230
     67 H         -15.4780    8.5127   -1.8810 H       1  LIG11       0.0230
     68 H         -15.1347    1.1626    3.4053 H       1  LIG11       0.1166
     69 H         -14.0432   -0.1017    4.0222 H       1  LIG11       0.1166
     70 H         -11.2296    4.7832    5.2892 H       1  LIG11       0.0660
     71 H         -12.6752    4.2725    4.4177 H       1  LIG11       0.0660
     72 H         -11.7091    3.0887    5.3924 H       1  LIG11       0.0660
     73 H          -6.0073    7.9739   -3.5239 H       1  LIG11       0.0280
     74 H          -4.3387    7.4356   -3.6999 H       1  LIG11       0.0280
     75 H          -4.7256    7.7804   -1.3201 H       1  LIG11       0.0280
     76 H          -5.3066    6.8843    0.0663 H       1  LIG11       0.0280
     77 H          -4.8055    6.8540   -6.1145 H       1  LIG11       0.0263
     78 H          -6.4399    7.4938   -5.9243 H       1  LIG11       0.0263
     79 H          -2.3812    7.1639   -0.8011 H       1  LIG11       0.0263
     80 H          -3.1678    8.0237    0.5183 H       1  LIG11       0.0263
     81 H          -3.8475    9.0864   -5.5499 H       1  LIG11       0.0230
     82 H          -4.9559    9.1934   -6.9274 H       1  LIG11       0.0230
     83 H          -5.4822    9.7384   -5.3250 H       1  LIG11       0.0230
     84 H          -2.6375    5.0116    0.3947 H       1  LIG11       0.0230
     85 H          -1.8774    6.1973    1.4591 H       1  LIG11       0.0230
     86 H          -3.5924    5.8016    1.6668 H       1  LIG11       0.0230
@<TRIPOS>BOND
     1     1     2    1
     2     1     3    1
     3     1     4    1
     4     2     5    1
     5     2     6    1
     6     3     8    1
     7     3     7    1
     8     4    10   ar
     9     4     9   ar
    10     5     8    1
    11     5    11    1
    12     6    12    1
    13     7    14   ar
    14     7    13   ar
    15    11    15    1
    16    12    18    1
    17    12    17    1
    18    12    16    1
    19    13    19   ar
    20    14    20   ar
    21    15    22    2
    22    15    21   am
    23    16    23    1
    24    19    25    1
    25    19    24   ar
    26    20    24   ar
    27    20    26    1
    28    21    28    1
    29    21    27    1
    30    23    29    1
    31    24    30    1
    32    25    31    1
    33    26    32    1
    34    27    33    1
    35    28    34    1
    36    30    31    1
    37    33    35    1
    38    34    36    1
    39    35    37    1
    40    36    38    1
    41     1    39    1
    42     2    40    1
    43     3    41    1
    44     5    42    1
    45     6    43    1
    46     6    44    1
    47     8    45    1
    48     8    46    1
    49    11    47    1
    50    11    48    1
    51    13    49    1
    52    14    50    1
    53    16    51    1
    54    16    52    1
    55    17    53    1
    56    17    54    1
    57    17    55    1
    58    18    56    1
    59    18    57    1
    60    18    58    1
    61    23    59    1
    62    23    60    1
    63    27    61    1
    64    27    62    1
    65    28    63    1
    66    28    64    1
    67    29    65    1
    68    29    66    1
    69    29    67    1
    70    31    68    1
    71    31    69    1
    72    32    70    1
    73    32    71    1
    74    32    72    1
    75    33    73    1
    76    33    74    1
    77    34    75    1
    78    34    76    1
    79    35    77    1
    80    35    78    1
    81    36    79    1
    82    36    80    1
    83    37    81    1
    84    37    82    1
    85    37    83    1
    86    38    84    1
    87    38    85    1
    88    38    86    1
@<TRIPOS>MOLECULE
../1EDN/3STEPMIN_17-21.pdb
 47 48 0 0 0
SMALL
GASTEIGER

@<TRIPOS>ATOM
      1  N         -5.4290    0.8830   -1.1740 N.3    17  LEU17      -0.1231
      2  CA        -6.8230    0.6710   -0.7980 C.3    17  LEU17       0.1693
      3  CB        -6.9230   -0.4370    0.2770 C.3    17  LEU17       0.0284
      4  CG        -6.4950   -1.8450   -0.1910 C.3    17  LEU17       0.0019
      5  CD1       -6.5150   -2.8060    0.9980 C.3    17  LEU17       0.0001
      6  CD2       -7.4310   -2.4140   -1.2600 C.3    17  LEU17       0.0001
      7  C         -7.3990    2.0370   -0.3760 C.2    17  LEU17       0.2592
      8  O         -7.4670    2.9330   -1.2040 O.2    17  LEU17      -0.2718
      9  N         -7.7380    2.2560    0.8970 N.am   18  ASP18      -0.1960
     10  CA        -8.5130    3.4280    1.3730 C.3    18  ASP18       0.1840
     11  CB        -9.0510    3.1310    2.7840 C.3    18  ASP18       0.1450
     12  CG       -10.5470    3.4340    2.8500 C.2    18  ASP18       0.3671
     13  OD1      -11.3300    2.4930    2.5610 O.co2  18  ASP18      -0.2456
     14  OD2      -10.9050    4.5930    3.1470 O.co2  18  ASP18      -0.2456
     15  C         -7.8270    4.8120    1.2910 C.2    18  ASP18       0.2622
     16  O         -8.3890    5.8210    1.7350 O.2    18  ASP18      -0.2715
     17  N         -6.6250    4.8510    0.7010 N.am   19  ILE19      -0.1963
     18  CA        -5.9180    6.0210    0.1680 C.3    19  ILE19       0.1727
     19  CB        -4.3960    5.7260    0.0740 C.3    19  ILE19       0.0290
     20  CG2       -3.6150    6.9530   -0.4300 C.3    19  ILE19       0.0023
     21  CG1       -3.7730    5.2100    1.3920 C.3    19  ILE19       0.0022
     22  CD1       -3.8620    6.1700    2.5820 C.3    19  ILE19       0.0001
     23  C         -6.4970    6.4050   -1.2110 C.2    19  ILE19       0.2616
     24  O         -7.0070    7.5130   -1.3720 O.2    19  ILE19      -0.2715
     25  N         -6.3950    5.4980   -2.1940 N.am   20  ILE20      -0.1963
     26  CA        -6.9990    5.5490   -3.5400 C.3    20  ILE20       0.1727
     27  CB        -6.0900    6.2460   -4.5940 C.3    20  ILE20       0.0290
     28  CG2       -6.7980    6.2490   -5.9680 C.3    20  ILE20       0.0023
     29  CG1       -5.7140    7.6970   -4.2070 C.3    20  ILE20       0.0022
     30  CD1       -4.7810    8.4150   -5.1910 C.3    20  ILE20       0.0001
     31  C         -7.3180    4.1070   -3.9880 C.2    20  ILE20       0.2617
     32  O         -6.4020    3.3070   -4.2100 O.2    20  ILE20      -0.2715
     33  N         -8.6100    3.8210   -4.1620 N.am   21  TRP21      -0.1938
     34  CA        -9.2240    2.5950   -4.7020 C.3    21  TRP21       0.2021
     35  CB        -9.7020    1.6830   -3.5450 C.3    21  TRP21       0.0612
     36  CG       -10.4970    2.2370   -2.3850 C.ar   21  TRP21       0.0007
     37  CD1      -10.6860    1.5470   -1.2340 C.ar   21  TRP21       0.0946
     38  NE1      -11.3350    2.3340   -0.3040 N.ar   21  TRP21      -0.2442
     39  CE2      -11.5720    3.5950   -0.7990 C.ar   21  TRP21       0.0810
     40  CZ2      -12.0950    4.7480   -0.2000 C.ar   21  TRP21       0.0191
     41  CH2      -12.2340    5.9130   -0.9670 C.ar   21  TRP21       0.0015
     42  CZ3      -11.8800    5.8920   -2.3260 C.ar   21  TRP21       0.0001
     43  CE3      -11.3480    4.7280   -2.9100 C.ar   21  TRP21       0.0012
     44  CD2      -11.1270    3.5500   -2.1550 C.ar   21  TRP21       0.0152
     45  C        -10.3230    2.8760   -5.7330 C.2    21  TRP21       0.3845
     46  O        -11.0800    1.9620   -6.0950 O.co2  21  TRP21      -0.2437
     47  OXT      -10.4270    4.0430   -6.2080 O.co2  21  TRP21      -0.2437
@<TRIPOS>BOND
     1    47    45   ar
     2    46    45   ar
     3    28    27    1
     4    45    34    1
     5    30    29    1
     6    34    33    1
     7    34    35    1
     8    27    29    1
     9    27    26    1
    10    32    31    2
    11    33    31   am
    12    31    26    1
    13    35    36    1
    14    26    25    1
    15    43    42   ar
    16    43    44   ar
    17    36    44   ar
    18    36    37   ar
    19    42    41   ar
    20    25    23   am
    21    44    39   ar
    22    24    23    2
    23     6     4    1
    24    37    38   ar
    25    23    18    1
    26     8     7    2
    27     1     2    1
    28    41    40   ar
    29    39    38   ar
    30    39    40   ar
    31     2     7    1
    32     2     3    1
    33    20    19    1
    34     7     9   am
    35     4     3    1
    36     4     5    1
    37    19    18    1
    38    19    21    1
    39    18    17    1
    40    17    15   am
    41     9    10    1
    42    15    10    1
    43    15    16    2
    44    10    11    1
    45    21    22    1
    46    13    12   ar
    47    11    12    1
    48    12    14   ar
