@<TRIPOS>MOLECULE
../1EDN/3STEPMIN_17-21_NOBACKBONE.pdb
 26 23 0 0 0
SMALL
GASTEIGER

@<TRIPOS>ATOM
      1  CB        -6.9230   -0.4370    0.2770 C.3    17  LEU17       0.0000
      2  CG        -6.4950   -1.8450   -0.1910 C.3    17  LEU17       0.0000
      3  CD1       -6.5150   -2.8060    0.9980 C.3    17  LEU17       0.0000
      4  CD2       -7.4310   -2.4140   -1.2600 C.3    17  LEU17       0.0000
      5  CB        -9.0510    3.1310    2.7840 C.3    18  ASP18       0.1258
      6  CG       -10.5470    3.4340    2.8500 C.2    18  ASP18       0.3654
      7  OD1      -11.3300    2.4930    2.5610 O.co2  18  ASP18      -0.2456
      8  OD2      -10.9050    4.5930    3.1470 O.co2  18  ASP18      -0.2456
      9  CB        -4.3960    5.7260    0.0740 C.3    19  ILE19       0.0000
     10  CG2       -3.6150    6.9530   -0.4300 C.3    19  ILE19       0.0000
     11  CG1       -3.7730    5.2100    1.3920 C.3    19  ILE19       0.0000
     12  CD1       -3.8620    6.1700    2.5820 C.3    19  ILE19       0.0000
     13  CB        -6.0900    6.2460   -4.5940 C.3    20  ILE20       0.0000
     14  CG2       -6.7980    6.2490   -5.9680 C.3    20  ILE20       0.0000
     15  CG1       -5.7140    7.6970   -4.2070 C.3    20  ILE20       0.0000
     16  CD1       -4.7810    8.4150   -5.1910 C.3    20  ILE20       0.0000
     17  CB        -9.7020    1.6830   -3.5450 C.3    21  TRP21       0.0327
     18  CG       -10.4970    2.2370   -2.3850 C.ar   21  TRP21      -0.0013
     19  CD1      -10.6860    1.5470   -1.2340 C.ar   21  TRP21       0.0946
     20  NE1      -11.3350    2.3340   -0.3040 N.ar   21  TRP21      -0.2442
     21  CE2      -11.5720    3.5950   -0.7990 C.ar   21  TRP21       0.0810
     22  CZ2      -12.0950    4.7480   -0.2000 C.ar   21  TRP21       0.0191
     23  CH2      -12.2340    5.9130   -0.9670 C.ar   21  TRP21       0.0015
     24  CZ3      -11.8800    5.8920   -2.3260 C.ar   21  TRP21       0.0001
     25  CE3      -11.3480    4.7280   -2.9100 C.ar   21  TRP21       0.0012
     26  CD2      -11.1270    3.5500   -2.1550 C.ar   21  TRP21       0.0152
@<TRIPOS>BOND
     1    14    13    1
     2    16    15    1
     3    13    15    1
     4    17    18    1
     5    25    24   ar
     6    25    26   ar
     7    18    26   ar
     8    18    19   ar
     9    24    23   ar
    10    26    21   ar
    11     4     2    1
    12    19    20   ar
    13    23    22   ar
    14    21    20   ar
    15    21    22   ar
    16    10     9    1
    17     2     1    1
    18     2     3    1
    19     9    11    1
    20    11    12    1
    21     7     6   ar
    22     5     6    1
    23     6     8   ar
@<TRIPOS>MOLECULE
9912992
 55 58 0 0 0
SMALL
GASTEIGER

@<TRIPOS>ATOM
      1 S         -11.5791    3.6182   -2.6301 S.O2    1  LIG11       0.0908
      2 O          -8.5837    5.2085   -3.0927 O.3     1  LIG11      -0.4435
      3 O          -6.5267    4.9206   -1.1873 O.3     1  LIG11      -0.4771
      4 O         -12.7691    2.8727   -2.9851 O.2     1  LIG11      -0.1484
      5 O         -11.4976    5.0375   -2.9236 O.2     1  LIG11      -0.1484
      6 O          -8.3158    8.1696   -2.8628 O.3     1  LIG11      -0.4914
      7 N         -10.2766    2.8508   -3.4091 N.pl3   1  LIG11      -0.1950
      8 N          -8.7564    1.6676   -2.2460 N.ar    1  LIG11      -0.2073
      9 N          -6.9504    2.6195   -1.0450 N.ar    1  LIG11      -0.1899
     10 N         -11.3431    2.1420   -0.4136 N.ar    1  LIG11      -0.2351
     11 N          -6.8611   -2.2815    0.2802 N.ar    1  LIG11      -0.2632
     12 C          -9.0345    2.8871   -2.7265 C.ar    1  LIG11       0.1882
     13 C          -8.2708    4.0144   -2.5047 C.ar    1  LIG11       0.2307
     14 C         -11.2800    3.4215   -0.8681 C.ar    1  LIG11       0.1969
     15 C          -7.2437    3.8140   -1.5999 C.ar    1  LIG11       0.2638
     16 C          -7.7123    1.5764   -1.4111 C.ar    1  LIG11       0.1659
     17 C         -10.9186    4.5186   -0.1005 C.ar    1  LIG11      -0.0160
     18 C          -7.4154    0.2562   -0.8302 C.ar    1  LIG11       0.0222
     19 C          -7.5636    5.9255   -3.6928 C.ar    1  LIG11       0.1702
     20 C         -10.6283    2.9948    1.7431 C.ar    1  LIG11      -0.0322
     21 C         -10.5790    4.2930    1.2285 C.ar    1  LIG11      -0.0541
     22 C         -11.0345    1.9680    0.8909 C.ar    1  LIG11       0.0327
     23 C          -7.4936    7.3217   -3.5559 C.ar    1  LIG11       0.1621
     24 C          -6.6084    5.2628   -4.4870 C.ar    1  LIG11      -0.0157
     25 C         -10.3088    2.7346    3.1826 C.3     1  LIG11      -0.0383
     26 C          -8.0339   -0.9089   -1.3150 C.ar    1  LIG11      -0.0329
     27 C          -6.5102    0.1045    0.2263 C.ar    1  LIG11      -0.0329
     28 C          -6.4390    8.0118   -4.1739 C.ar    1  LIG11      -0.0163
     29 C          -5.5598    5.9665   -5.0827 C.ar    1  LIG11      -0.0581
     30 C          -5.4717    7.3433   -4.9230 C.ar    1  LIG11      -0.0581
     31 C          -7.7286   -2.1318   -0.7396 C.ar    1  LIG11       0.0282
     32 C          -6.2714   -1.1605    0.7409 C.ar    1  LIG11       0.0282
     33 C          -5.4090    4.6112   -0.3617 C.3     1  LIG11       0.0805
     34 C          -9.4889    7.6463   -2.2695 C.3     1  LIG11       0.0790
     35 H         -10.5520    1.8847   -3.5909 H       1  LIG11       0.1754
     36 H         -10.8777    5.5161   -0.5203 H       1  LIG11       0.0653
     37 H         -10.2761    5.1267    1.8559 H       1  LIG11       0.0622
     38 H         -11.1187    0.9439    1.2450 H       1  LIG11       0.0833
     39 H          -6.6634    4.1905   -4.6487 H       1  LIG11       0.0655
     40 H          -9.4365    3.3187    3.4934 H       1  LIG11       0.0278
     41 H         -11.1625    3.0087    3.8111 H       1  LIG11       0.0278
     42 H         -10.0735    1.6793    3.3528 H       1  LIG11       0.0278
     43 H          -8.7477   -0.8712   -2.1334 H       1  LIG11       0.0640
     44 H          -5.9969    0.9600    0.6545 H       1  LIG11       0.0640
     45 H          -6.3742    9.0934   -4.0652 H       1  LIG11       0.0655
     46 H          -4.8146    5.4395   -5.6748 H       1  LIG11       0.0619
     47 H          -4.6624    7.9011   -5.3846 H       1  LIG11       0.0619
     48 H          -8.1895   -3.0485   -1.0965 H       1  LIG11       0.0830
     49 H          -5.5769   -1.3070    1.5635 H       1  LIG11       0.0830
     50 H          -4.8801    5.5460   -0.1534 H       1  LIG11       0.0660
     51 H          -5.7322    4.1897    0.5957 H       1  LIG11       0.0660
     52 H          -4.7106    3.9390   -0.8726 H       1  LIG11       0.0660
     53 H         -10.0334    8.4801   -1.8150 H       1  LIG11       0.0660
     54 H         -10.1455    7.2016   -3.0209 H       1  LIG11       0.0660
     55 H          -9.2383    6.9502   -1.4651 H       1  LIG11       0.0660
@<TRIPOS>BOND
     1     1     4    2
     2     1     5    2
     3     1     7    1
     4     1    14    1
     5     2    13    1
     6     2    19    1
     7     3    15    1
     8     3    33    1
     9     6    23    1
    10     6    34    1
    11     7    12    1
    12     8    12   ar
    13     8    16   ar
    14     9    15   ar
    15     9    16   ar
    16    10    14   ar
    17    10    22   ar
    18    11    31   ar
    19    11    32   ar
    20    12    13   ar
    21    13    15   ar
    22    14    17   ar
    23    16    18    1
    24    17    21   ar
    25    18    26   ar
    26    18    27   ar
    27    19    23   ar
    28    19    24   ar
    29    20    21   ar
    30    20    22   ar
    31    20    25    1
    32    23    28   ar
    33    24    29   ar
    34    26    31   ar
    35    27    32   ar
    36    28    30   ar
    37    29    30   ar
    38     7    35    1
    39    17    36    1
    40    21    37    1
    41    22    38    1
    42    24    39    1
    43    25    40    1
    44    25    41    1
    45    25    42    1
    46    26    43    1
    47    27    44    1
    48    28    45    1
    49    29    46    1
    50    30    47    1
    51    31    48    1
    52    32    49    1
    53    33    50    1
    54    33    51    1
    55    33    52    1
    56    34    53    1
    57    34    54    1
    58    34    55    1
@<TRIPOS>MOLECULE
../1EDN/3STEPMIN_17-21.pdb
 47 48 0 0 0
SMALL
GASTEIGER

@<TRIPOS>ATOM
      1  N         -5.4290    0.8830   -1.1740 N.3    17  LEU17      -0.1231
      2  CA        -6.8230    0.6710   -0.7980 C.3    17  LEU17       0.1693
      3  CB        -6.9230   -0.4370    0.2770 C.3    17  LEU17       0.0284
      4  CG        -6.4950   -1.8450   -0.1910 C.3    17  LEU17       0.0019
      5  CD1       -6.5150   -2.8060    0.9980 C.3    17  LEU17       0.0001
      6  CD2       -7.4310   -2.4140   -1.2600 C.3    17  LEU17       0.0001
      7  C         -7.3990    2.0370   -0.3760 C.2    17  LEU17       0.2592
      8  O         -7.4670    2.9330   -1.2040 O.2    17  LEU17      -0.2718
      9  N         -7.7380    2.2560    0.8970 N.am   18  ASP18      -0.1960
     10  CA        -8.5130    3.4280    1.3730 C.3    18  ASP18       0.1840
     11  CB        -9.0510    3.1310    2.7840 C.3    18  ASP18       0.1450
     12  CG       -10.5470    3.4340    2.8500 C.2    18  ASP18       0.3671
     13  OD1      -11.3300    2.4930    2.5610 O.co2  18  ASP18      -0.2456
     14  OD2      -10.9050    4.5930    3.1470 O.co2  18  ASP18      -0.2456
     15  C         -7.8270    4.8120    1.2910 C.2    18  ASP18       0.2622
     16  O         -8.3890    5.8210    1.7350 O.2    18  ASP18      -0.2715
     17  N         -6.6250    4.8510    0.7010 N.am   19  ILE19      -0.1963
     18  CA        -5.9180    6.0210    0.1680 C.3    19  ILE19       0.1727
     19  CB        -4.3960    5.7260    0.0740 C.3    19  ILE19       0.0290
     20  CG2       -3.6150    6.9530   -0.4300 C.3    19  ILE19       0.0023
     21  CG1       -3.7730    5.2100    1.3920 C.3    19  ILE19       0.0022
     22  CD1       -3.8620    6.1700    2.5820 C.3    19  ILE19       0.0001
     23  C         -6.4970    6.4050   -1.2110 C.2    19  ILE19       0.2616
     24  O         -7.0070    7.5130   -1.3720 O.2    19  ILE19      -0.2715
     25  N         -6.3950    5.4980   -2.1940 N.am   20  ILE20      -0.1963
     26  CA        -6.9990    5.5490   -3.5400 C.3    20  ILE20       0.1727
     27  CB        -6.0900    6.2460   -4.5940 C.3    20  ILE20       0.0290
     28  CG2       -6.7980    6.2490   -5.9680 C.3    20  ILE20       0.0023
     29  CG1       -5.7140    7.6970   -4.2070 C.3    20  ILE20       0.0022
     30  CD1       -4.7810    8.4150   -5.1910 C.3    20  ILE20       0.0001
     31  C         -7.3180    4.1070   -3.9880 C.2    20  ILE20       0.2617
     32  O         -6.4020    3.3070   -4.2100 O.2    20  ILE20      -0.2715
     33  N         -8.6100    3.8210   -4.1620 N.am   21  TRP21      -0.1938
     34  CA        -9.2240    2.5950   -4.7020 C.3    21  TRP21       0.2021
     35  CB        -9.7020    1.6830   -3.5450 C.3    21  TRP21       0.0612
     36  CG       -10.4970    2.2370   -2.3850 C.ar   21  TRP21       0.0007
     37  CD1      -10.6860    1.5470   -1.2340 C.ar   21  TRP21       0.0946
     38  NE1      -11.3350    2.3340   -0.3040 N.ar   21  TRP21      -0.2442
     39  CE2      -11.5720    3.5950   -0.7990 C.ar   21  TRP21       0.0810
     40  CZ2      -12.0950    4.7480   -0.2000 C.ar   21  TRP21       0.0191
     41  CH2      -12.2340    5.9130   -0.9670 C.ar   21  TRP21       0.0015
     42  CZ3      -11.8800    5.8920   -2.3260 C.ar   21  TRP21       0.0001
     43  CE3      -11.3480    4.7280   -2.9100 C.ar   21  TRP21       0.0012
     44  CD2      -11.1270    3.5500   -2.1550 C.ar   21  TRP21       0.0152
     45  C        -10.3230    2.8760   -5.7330 C.2    21  TRP21       0.3845
     46  O        -11.0800    1.9620   -6.0950 O.co2  21  TRP21      -0.2437
     47  OXT      -10.4270    4.0430   -6.2080 O.co2  21  TRP21      -0.2437
@<TRIPOS>BOND
     1    47    45   ar
     2    46    45   ar
     3    28    27    1
     4    45    34    1
     5    30    29    1
     6    34    33    1
     7    34    35    1
     8    27    29    1
     9    27    26    1
    10    32    31    2
    11    33    31   am
    12    31    26    1
    13    35    36    1
    14    26    25    1
    15    43    42   ar
    16    43    44   ar
    17    36    44   ar
    18    36    37   ar
    19    42    41   ar
    20    25    23   am
    21    44    39   ar
    22    24    23    2
    23     6     4    1
    24    37    38   ar
    25    23    18    1
    26     8     7    2
    27     1     2    1
    28    41    40   ar
    29    39    38   ar
    30    39    40   ar
    31     2     7    1
    32     2     3    1
    33    20    19    1
    34     7     9   am
    35     4     3    1
    36     4     5    1
    37    19    18    1
    38    19    21    1
    39    18    17    1
    40    17    15   am
    41     9    10    1
    42    15    10    1
    43    15    16    2
    44    10    11    1
    45    21    22    1
    46    13    12   ar
    47    11    12    1
    48    12    14   ar
