@<TRIPOS>MOLECULE
../1EDN/PCA1_17-21_NOBACKBONE.pdb
 26 23 0 0 0
SMALL
GASTEIGER

@<TRIPOS>ATOM
      1  CB        -6.0770   -2.3450   -1.7480 C.3    17  LEU17       0.0000
      2  CG        -7.4170   -3.0590   -2.1890 C.3    17  LEU17       0.0000
      3  CD1       -7.4920   -3.1930   -3.7220 C.3    17  LEU17       0.0000
      4  CD2       -7.5340   -4.4610   -1.6100 C.3    17  LEU17       0.0000
      5  CB        -8.8290    0.4520    1.4200 C.3    18  ASP18       0.1258
      6  CG        -9.9140    1.2760    2.0640 C.2    18  ASP18       0.3654
      7  OD1      -10.8560    1.7240    1.3430 O.co2  18  ASP18      -0.2456
      8  OD2       -9.7710    1.5960    3.2830 O.co2  18  ASP18      -0.2456
      9  CB        -5.0730    3.3500    3.1520 C.3    19  ILE19       0.0000
     10  CG2       -4.5850    4.5470    3.9530 C.3    19  ILE19       0.0000
     11  CG1       -5.6210    2.1420    3.9730 C.3    19  ILE19       0.0000
     12  CD1       -6.7460    2.5740    4.8760 C.3    19  ILE19       0.0000
     13  CB        -2.8480    5.4620   -0.8180 C.3    20  ILE20       0.0000
     14  CG2       -2.5210    6.1670    0.5290 C.3    20  ILE20       0.0000
     15  CG1       -1.9270    4.2500   -0.9510 C.3    20  ILE20       0.0000
     16  CD1       -0.4520    4.4090   -1.0350 C.3    20  ILE20       0.0000
     17  CB        -7.1930    6.0870   -4.6010 C.3    21  TRP21       0.0066
     18  CG        -8.1480    4.9210   -4.3560 C.3    21  TRP21       0.0452
     19  CD1       -8.4270    4.3170   -3.1580 C.3    21  TRP21       0.1165
     20  NE1       -9.4680    3.4340   -3.3480 N.pl3  21  TRP21      -0.2376
     21  CE2      -10.0400    3.5420   -4.5600 C.ar   21  TRP21       0.0614
     22  CZ2      -11.2420    2.9770   -5.0990 C.ar   21  TRP21       0.0158
     23  CH2      -11.3060    3.0240   -6.5170 C.ar   21  TRP21       0.0013
     24  CZ3      -10.3640    3.7270   -7.2650 C.ar   21  TRP21      -0.0002
     25  CE3       -9.2810    4.3830   -6.7050 C.ar   21  TRP21      -0.0030
     26  CD2       -9.0950    4.3440   -5.3390 C.ar   21  TRP21      -0.0059
@<TRIPOS>BOND
     1    24    25   ar
     2    24    23   ar
     3    25    26   ar
     4    23    22   ar
     5    26    21   ar
     6    26    18    1
     7    22    21   ar
     8    17    18    1
     9    21    20    1
    10    18    19    1
    11     3     2    1
    12    20    19    1
    13     2     1    1
    14     2     4    1
    15    16    15    1
    16    15    13    1
    17    13    14    1
    18     7     6   ar
    19     5     6    1
    20     6     8   ar
    21     9    10    1
    22     9    11    1
    23    11    12    1
@<TRIPOS>MOLECULE
9939443
 70 74 0 0 0
SMALL
GASTEIGER

@<TRIPOS>ATOM
      1 S          -7.2574    5.0948   -3.4207 S.O2    1  LIG11       0.0908
      2 O          -9.7809    3.2327   -4.9791 O.3     1  LIG11      -0.4435
      3 O          -8.3146    5.6621   -2.6080 O.2     1  LIG11      -0.1484
      4 O          -7.0553    5.5271   -4.7907 O.2     1  LIG11      -0.1484
      5 O         -12.0373    1.8807   -3.5510 O.3     1  LIG11      -0.4715
      6 O         -10.0367    3.4372   -7.7183 O.3     1  LIG11      -0.4914
      7 O          -9.8285   -0.0844   -4.6785 O.3     1  LIG11      -0.3917
      8 N          -7.4363    3.4130   -3.5347 N.pl3   1  LIG11      -0.1950
      9 N          -4.6715    5.7346   -3.2221 N.ar    1  LIG11      -0.2351
     10 N          -8.5045    2.6267   -1.6471 N.ar    1  LIG11      -0.2073
     11 N         -10.7624    1.8915   -1.6904 N.ar    1  LIG11      -0.1899
     12 N          -9.4456    1.4843    3.1918 N.ar    1  LIG11      -0.2552
     13 N          -7.0145    2.0951    4.6235 N.ar    1  LIG11      -0.5621
     14 N          -6.0447    2.8517    2.7257 N.ar    1  LIG11      -0.1535
     15 N          -5.7742    2.5657    4.7937 N.ar    1  LIG11      -0.3597
     16 N          -5.1599    3.0233    3.6965 N.ar    1  LIG11      -0.0878
     17 C          -2.0028    5.8011   -0.5254 C.3     1  LIG11      -0.0201
     18 C          -3.3487    5.5740   -1.1850 C.ar    1  LIG11      -0.0266
     19 C          -2.1036    6.3050    0.9184 C.3     1  LIG11      -0.0586
     20 C          -1.1480    4.5345   -0.5920 C.3     1  LIG11      -0.0586
     21 C          -5.7181    5.2387   -2.5148 C.ar    1  LIG11       0.1969
     22 C          -4.4545    5.0381   -0.5114 C.ar    1  LIG11      -0.0535
     23 C          -3.5204    5.8898   -2.5352 C.ar    1  LIG11       0.0332
     24 C          -5.6665    4.8775   -1.1777 C.ar    1  LIG11      -0.0160
     25 C          -8.6335    2.9187   -2.9496 C.ar    1  LIG11       0.1882
     26 C          -9.8011    2.8210   -3.6808 C.ar    1  LIG11       0.2307
     27 C         -10.8278    2.2009   -3.0040 C.ar    1  LIG11       0.2641
     28 C          -9.6062    2.1442   -1.0536 C.ar    1  LIG11       0.1659
     29 C          -9.5489    1.8985    0.3995 C.ar    1  LIG11       0.0227
     30 C         -10.7688    4.0548   -5.4757 C.ar    1  LIG11       0.1702
     31 C          -8.3879    2.1744    1.1421 C.ar    1  LIG11      -0.0252
     32 C         -10.6524    1.4040    1.1073 C.ar    1  LIG11      -0.0328
     33 C         -11.9994    1.0075   -4.6890 C.3     1  LIG11       0.1143
     34 C         -10.8875    4.1039   -6.8732 C.ar    1  LIG11       0.1621
     35 C          -8.3702    1.9669    2.5196 C.ar    1  LIG11       0.0708
     36 C         -11.6467    4.8152   -4.6946 C.ar    1  LIG11      -0.0157
     37 C         -10.5545    1.2153    2.4755 C.ar    1  LIG11       0.0289
     38 C         -11.2252   -0.2966   -4.4793 C.3     1  LIG11       0.0783
     39 C         -11.9398    4.7926   -7.4748 C.ar    1  LIG11      -0.0163
     40 C         -12.6873    5.5251   -5.3012 C.ar    1  LIG11      -0.0581
     41 C         -12.8464    5.4996   -6.6871 C.ar    1  LIG11      -0.0581
     42 C          -7.1701    2.2882    3.2985 C.ar    1  LIG11       0.0207
     43 C          -8.7042    3.9529   -7.6294 C.3     1  LIG11       0.0790
     44 H          -9.4030   -0.9622   -4.6489 H       1  LIG11       0.2095
     45 H          -7.3663    3.1828   -4.5270 H       1  LIG11       0.1754
     46 H          -5.3219    2.5765    5.7036 H       1  LIG11       0.1651
     47 H          -1.4813    6.5876   -1.0882 H       1  LIG11       0.0344
     48 H          -2.5032    5.5414    1.5938 H       1  LIG11       0.0235
     49 H          -2.7490    7.1877    0.9832 H       1  LIG11       0.0235
     50 H          -1.1134    6.5868    1.2939 H       1  LIG11       0.0235
     51 H          -1.6101    3.7070   -0.0428 H       1  LIG11       0.0235
     52 H          -0.1565    4.7132   -0.1610 H       1  LIG11       0.0235
     53 H          -1.0058    4.2085   -1.6283 H       1  LIG11       0.0235
     54 H          -4.3883    4.7447    0.5349 H       1  LIG11       0.0622
     55 H          -2.6981    6.2963   -3.1241 H       1  LIG11       0.0833
     56 H          -6.5393    4.4866   -0.6672 H       1  LIG11       0.0653
     57 H          -7.5029    2.5589    0.6438 H       1  LIG11       0.0646
     58 H         -11.5869    1.1734    0.6021 H       1  LIG11       0.0640
     59 H         -11.6466    1.5379   -5.5747 H       1  LIG11       0.0720
     60 H         -13.0480    0.7484   -4.8774 H       1  LIG11       0.0720
     61 H         -11.5571    4.8593   -3.6135 H       1  LIG11       0.0655
     62 H         -11.3961    0.8360    3.0494 H       1  LIG11       0.0830
     63 H         -11.3769   -0.6958   -3.4732 H       1  LIG11       0.0591
     64 H         -11.5510   -1.0344   -5.2197 H       1  LIG11       0.0591
     65 H         -12.0478    4.7833   -8.5561 H       1  LIG11       0.0655
     66 H         -13.3841    6.0914   -4.6882 H       1  LIG11       0.0619
     67 H         -13.6666    6.0390   -7.1532 H       1  LIG11       0.0619
     68 H          -8.2373    3.8437   -8.6128 H       1  LIG11       0.0660
     69 H          -8.1204    3.3620   -6.9163 H       1  LIG11       0.0660
     70 H          -8.6746    5.0152   -7.3587 H       1  LIG11       0.0660
@<TRIPOS>BOND
     1     1    21    1
     2     1     8    1
     3     1     4    2
     4     1     3    2
     5     2    26    1
     6     2    30    1
     7     5    27    1
     8     5    33    1
     9     6    34    1
    10     6    43    1
    11     7    38    1
    12     8    25    1
    13     9    23   ar
    14     9    21   ar
    15    10    25   ar
    16    10    28   ar
    17    11    27   ar
    18    11    28   ar
    19    12    37   ar
    20    12    35   ar
    21    13    15   ar
    22    13    42   ar
    23    14    42   ar
    24    14    16   ar
    25    15    16   ar
    26    17    18    1
    27    17    20    1
    28    17    19    1
    29    18    23   ar
    30    18    22   ar
    31    21    24   ar
    32    22    24   ar
    33    25    26   ar
    34    26    27   ar
    35    28    29    1
    36    29    31   ar
    37    29    32   ar
    38    30    36   ar
    39    30    34   ar
    40    31    35   ar
    41    32    37   ar
    42    33    38    1
    43    34    39   ar
    44    35    42    1
    45    36    40   ar
    46    39    41   ar
    47    40    41   ar
    48     7    44    1
    49     8    45    1
    50    15    46    1
    51    17    47    1
    52    19    48    1
    53    19    49    1
    54    19    50    1
    55    20    51    1
    56    20    52    1
    57    20    53    1
    58    22    54    1
    59    23    55    1
    60    24    56    1
    61    31    57    1
    62    32    58    1
    63    33    59    1
    64    33    60    1
    65    36    61    1
    66    37    62    1
    67    38    63    1
    68    38    64    1
    69    39    65    1
    70    40    66    1
    71    41    67    1
    72    43    68    1
    73    43    69    1
    74    43    70    1
@<TRIPOS>MOLECULE
../1EDN/PCA1_17-21.pdb
 47 48 0 0 0
SMALL
GASTEIGER

@<TRIPOS>ATOM
      1  N         -4.6470   -0.3680   -1.6750 N.3    17  LEU17      -0.1231
      2  CA        -5.8920   -0.8550   -2.2480 C.3    17  LEU17       0.1693
      3  CB        -6.0770   -2.3450   -1.7480 C.3    17  LEU17       0.0284
      4  CG        -7.4170   -3.0590   -2.1890 C.3    17  LEU17       0.0019
      5  CD1       -7.4920   -3.1930   -3.7220 C.3    17  LEU17       0.0001
      6  CD2       -7.5340   -4.4610   -1.6100 C.3    17  LEU17       0.0001
      7  C         -7.0080    0.1010   -1.8270 C.2    17  LEU17       0.2592
      8  O         -7.6220    0.6590   -2.7680 O.2    17  LEU17      -0.2718
      9  N         -7.2890    0.1920   -0.5460 N.am   18  ASP18      -0.1960
     10  CA        -8.2730    1.1070    0.1120 C.3    18  ASP18       0.1840
     11  CB        -8.8290    0.4520    1.4200 C.3    18  ASP18       0.1450
     12  CG        -9.9140    1.2760    2.0640 C.2    18  ASP18       0.3671
     13  OD1      -10.8560    1.7240    1.3430 O.co2  18  ASP18      -0.2456
     14  OD2       -9.7710    1.5960    3.2830 O.co2  18  ASP18      -0.2456
     15  C         -7.6270    2.4530    0.4740 C.2    18  ASP18       0.2622
     16  O         -8.0770    3.4620   -0.0480 O.2    18  ASP18      -0.2715
     17  N         -6.6010    2.4770    1.3340 N.am   19  ILE19      -0.1963
     18  CA        -6.1660    3.6270    2.0790 C.3    19  ILE19       0.1727
     19  CB        -5.0730    3.3500    3.1520 C.3    19  ILE19       0.0290
     20  CG2       -4.5850    4.5470    3.9530 C.3    19  ILE19       0.0023
     21  CG1       -5.6210    2.1420    3.9730 C.3    19  ILE19       0.0022
     22  CD1       -6.7460    2.5740    4.8760 C.3    19  ILE19       0.0001
     23  C         -5.6740    4.7260    1.1170 C.2    19  ILE19       0.2616
     24  O         -5.9640    5.8590    1.4260 O.2    19  ILE19      -0.2715
     25  N         -4.8940    4.3400    0.1060 N.am   20  ILE20      -0.1963
     26  CA        -4.3700    5.1770   -0.9560 C.3    20  ILE20       0.1727
     27  CB        -2.8480    5.4620   -0.8180 C.3    20  ILE20       0.0290
     28  CG2       -2.5210    6.1670    0.5290 C.3    20  ILE20       0.0023
     29  CG1       -1.9270    4.2500   -0.9510 C.3    20  ILE20       0.0022
     30  CD1       -0.4520    4.4090   -1.0350 C.3    20  ILE20       0.0001
     31  C         -4.8260    4.7960   -2.3980 C.2    20  ILE20       0.2617
     32  O         -4.8210    3.6210   -2.7490 O.2    20  ILE20      -0.2715
     33  N         -5.1950    5.7710   -3.1960 N.am   21  TRP21      -0.1941
     34  CA        -5.6960    5.8160   -4.5740 C.3    21  TRP21       0.1982
     35  CB        -7.1930    6.0870   -4.6010 C.3    21  TRP21       0.0394
     36  CG        -8.1480    4.9210   -4.3560 C.3    21  TRP21       0.0475
     37  CD1       -8.4270    4.3170   -3.1580 C.3    21  TRP21       0.1166
     38  NE1       -9.4680    3.4340   -3.3480 N.pl3  21  TRP21      -0.2376
     39  CE2      -10.0400    3.5420   -4.5600 C.ar   21  TRP21       0.0614
     40  CZ2      -11.2420    2.9770   -5.0990 C.ar   21  TRP21       0.0158
     41  CH2      -11.3060    3.0240   -6.5170 C.ar   21  TRP21       0.0013
     42  CZ3      -10.3640    3.7270   -7.2650 C.ar   21  TRP21      -0.0002
     43  CE3       -9.2810    4.3830   -6.7050 C.ar   21  TRP21      -0.0030
     44  CD2       -9.0950    4.3440   -5.3390 C.ar   21  TRP21      -0.0059
     45  C         -4.8510    6.8160   -5.3910 C.2    21  TRP21       0.3842
     46  O         -5.0400    8.0490   -5.1500 O.co2  21  TRP21      -0.2437
     47  OXT       -3.9720    6.3760   -6.1010 O.co2  21  TRP21      -0.2437
@<TRIPOS>BOND
     1    42    43   ar
     2    42    41   ar
     3    43    44   ar
     4    41    40   ar
     5    47    45   ar
     6    45    46   ar
     7    45    34    1
     8    44    39   ar
     9    44    36    1
    10    40    39   ar
    11    35    34    1
    12    35    36    1
    13    34    33    1
    14    39    38    1
    15    36    37    1
    16     5     4    1
    17    38    37    1
    18    33    31   am
    19     8     7    2
    20    32    31    2
    21    31    26    1
    22     2     7    1
    23     2     3    1
    24     2     1    1
    25     4     3    1
    26     4     6    1
    27     7     9   am
    28    30    29    1
    29    26    27    1
    30    26    25    1
    31    29    27    1
    32    27    28    1
    33     9    10    1
    34    16    15    2
    35    25    23   am
    36    10    15    1
    37    10    11    1
    38    15    17   am
    39    23    24    2
    40    23    18    1
    41    17    18    1
    42    13    12   ar
    43    11    12    1
    44    12    14   ar
    45    18    19    1
    46    19    20    1
    47    19    21    1
    48    21    22    1
