@<TRIPOS>MOLECULE
../1EDN/PCA1_17-21_NOBACKBONE.pdb
 26 23 0 0 0
SMALL
GASTEIGER

@<TRIPOS>ATOM
      1  CB        -6.0770   -2.3450   -1.7480 C.3    17  LEU17       0.0000
      2  CG        -7.4170   -3.0590   -2.1890 C.3    17  LEU17       0.0000
      3  CD1       -7.4920   -3.1930   -3.7220 C.3    17  LEU17       0.0000
      4  CD2       -7.5340   -4.4610   -1.6100 C.3    17  LEU17       0.0000
      5  CB        -8.8290    0.4520    1.4200 C.3    18  ASP18       0.1258
      6  CG        -9.9140    1.2760    2.0640 C.2    18  ASP18       0.3654
      7  OD1      -10.8560    1.7240    1.3430 O.co2  18  ASP18      -0.2456
      8  OD2       -9.7710    1.5960    3.2830 O.co2  18  ASP18      -0.2456
      9  CB        -5.0730    3.3500    3.1520 C.3    19  ILE19       0.0000
     10  CG2       -4.5850    4.5470    3.9530 C.3    19  ILE19       0.0000
     11  CG1       -5.6210    2.1420    3.9730 C.3    19  ILE19       0.0000
     12  CD1       -6.7460    2.5740    4.8760 C.3    19  ILE19       0.0000
     13  CB        -2.8480    5.4620   -0.8180 C.3    20  ILE20       0.0000
     14  CG2       -2.5210    6.1670    0.5290 C.3    20  ILE20       0.0000
     15  CG1       -1.9270    4.2500   -0.9510 C.3    20  ILE20       0.0000
     16  CD1       -0.4520    4.4090   -1.0350 C.3    20  ILE20       0.0000
     17  CB        -7.1930    6.0870   -4.6010 C.3    21  TRP21       0.0066
     18  CG        -8.1480    4.9210   -4.3560 C.3    21  TRP21       0.0452
     19  CD1       -8.4270    4.3170   -3.1580 C.3    21  TRP21       0.1165
     20  NE1       -9.4680    3.4340   -3.3480 N.pl3  21  TRP21      -0.2376
     21  CE2      -10.0400    3.5420   -4.5600 C.ar   21  TRP21       0.0614
     22  CZ2      -11.2420    2.9770   -5.0990 C.ar   21  TRP21       0.0158
     23  CH2      -11.3060    3.0240   -6.5170 C.ar   21  TRP21       0.0013
     24  CZ3      -10.3640    3.7270   -7.2650 C.ar   21  TRP21      -0.0002
     25  CE3       -9.2810    4.3830   -6.7050 C.ar   21  TRP21      -0.0030
     26  CD2       -9.0950    4.3440   -5.3390 C.ar   21  TRP21      -0.0059
@<TRIPOS>BOND
     1    24    25   ar
     2    24    23   ar
     3    25    26   ar
     4    23    22   ar
     5    26    21   ar
     6    26    18    1
     7    22    21   ar
     8    17    18    1
     9    21    20    1
    10    18    19    1
    11     3     2    1
    12    20    19    1
    13     2     1    1
    14     2     4    1
    15    16    15    1
    16    15    13    1
    17    13    14    1
    18     7     6   ar
    19     5     6    1
    20     6     8   ar
    21     9    10    1
    22     9    11    1
    23    11    12    1
@<TRIPOS>MOLECULE
6433095
 64 68 0 0 0
SMALL
GASTEIGER

@<TRIPOS>ATOM
      1 S         -10.0977    1.1613    1.3944 S.O2    1  LIG11       0.0908
      2 O          -6.9932    2.8906    2.2595 O.3     1  LIG11      -0.4435
      3 O          -4.9098    2.9886    0.2888 O.3     1  LIG11      -0.4715
      4 O         -11.3449    1.0988    0.6548 O.2     1  LIG11      -0.1484
      5 O         -10.0766    0.8232    2.8052 O.2     1  LIG11      -0.1484
      6 O          -5.9022    1.7385    4.3588 O.3     1  LIG11      -0.4914
      7 O          -4.0740    0.2296   -0.1538 O.3     1  LIG11      -0.3917
      8 N          -9.5467    2.7706    1.3311 N.pl3   1  LIG11      -0.1950
      9 N          -8.8309    3.2678   -0.8396 N.ar    1  LIG11      -0.2073
     10 N          -6.5136    3.4416   -1.3425 N.ar    1  LIG11      -0.1899
     11 N          -8.1260   -0.6551    1.2941 N.ar    1  LIG11      -0.2351
     12 N          -8.5877    5.0325   -5.6177 N.ar    1  LIG11      -0.2552
     13 N         -11.0334    4.3176   -6.9558 N.ar    1  LIG11      -0.5621
     14 N         -11.2787    2.5503   -5.5656 N.ar    1  LIG11      -0.1535
     15 N         -12.0166    3.4802   -7.3055 N.ar    1  LIG11      -0.3597
     16 N         -12.1954    2.4185   -6.5121 N.ar    1  LIG11      -0.0878
     17 C          -8.4831    3.0578    0.4457 C.ar    1  LIG11       0.1882
     18 C          -7.1870    3.0633    0.9211 C.ar    1  LIG11       0.2307
     19 C          -6.2276    3.1613   -0.0591 C.ar    1  LIG11       0.2641
     20 C          -7.8126    3.5365   -1.6758 C.ar    1  LIG11       0.1659
     21 C          -8.9211    0.1127    0.5187 C.ar    1  LIG11       0.1969
     22 C          -8.1025    4.0335   -3.0277 C.ar    1  LIG11       0.0227
     23 C          -8.9729    0.0440   -0.8665 C.ar    1  LIG11      -0.0160
     24 C          -5.9968    3.5964    2.9036 C.ar    1  LIG11       0.1702
     25 C          -9.2379    3.6453   -3.7488 C.ar    1  LIG11      -0.0252
     26 C          -7.2714   -1.6620   -0.7416 C.ar    1  LIG11      -0.0322
     27 C          -8.1112   -0.8445   -1.5033 C.ar    1  LIG11      -0.0541
     28 C          -7.2240    4.9400   -3.6451 C.ar    1  LIG11      -0.0328
     29 C          -4.0481    2.5687   -0.7768 C.3     1  LIG11       0.1143
     30 C          -9.4402    4.1486   -5.0360 C.ar    1  LIG11       0.0708
     31 C          -7.3322   -1.5367    0.6463 C.ar    1  LIG11       0.0327
     32 C          -5.4170    2.9749    4.0197 C.ar    1  LIG11       0.1621
     33 C          -5.5913    4.8853    2.5330 C.ar    1  LIG11      -0.0157
     34 C          -7.5053    5.4111   -4.9137 C.ar    1  LIG11       0.0289
     35 C          -6.3807   -2.6745   -1.3872 C.3     1  LIG11      -0.0383
     36 C          -4.3399    1.1346   -1.2221 C.3     1  LIG11       0.0783
     37 C          -4.3585    3.5996    4.6834 C.ar    1  LIG11      -0.0163
     38 C          -4.5326    5.5018    3.2001 C.ar    1  LIG11      -0.0581
     39 C          -3.9088    4.8535    4.2638 C.ar    1  LIG11      -0.0581
     40 C         -10.5740    3.7041   -5.8469 C.ar    1  LIG11       0.0207
     41 C          -5.9158    1.4559    5.7536 C.3     1  LIG11       0.0790
     42 H          -4.7351   -0.4796   -0.2048 H       1  LIG11       0.2095
     43 H          -9.3073    2.9971    2.2994 H       1  LIG11       0.1754
     44 H         -12.5935    3.6390   -8.1265 H       1  LIG11       0.1651
     45 H          -9.6669    0.6539   -1.4371 H       1  LIG11       0.0653
     46 H          -9.9532    2.9486   -3.3159 H       1  LIG11       0.0646
     47 H          -8.1199   -0.9124   -2.5890 H       1  LIG11       0.0622
     48 H          -6.3283    5.2891   -3.1383 H       1  LIG11       0.0640
     49 H          -3.0321    2.6124   -0.3691 H       1  LIG11       0.0720
     50 H          -4.0860    3.2728   -1.6155 H       1  LIG11       0.0720
     51 H          -6.7373   -2.1790    1.2952 H       1  LIG11       0.0833
     52 H          -6.0633    5.4138    1.7104 H       1  LIG11       0.0655
     53 H          -6.8512    6.1216   -5.4108 H       1  LIG11       0.0830
     54 H          -6.2766   -2.4852   -2.4625 H       1  LIG11       0.0278
     55 H          -6.7892   -3.6819   -1.2562 H       1  LIG11       0.0278
     56 H          -5.3752   -2.6381   -0.9543 H       1  LIG11       0.0278
     57 H          -5.3825    1.0090   -1.5290 H       1  LIG11       0.0591
     58 H          -3.6946    0.8586   -2.0602 H       1  LIG11       0.0591
     59 H          -3.8491    3.1153    5.5098 H       1  LIG11       0.0655
     60 H          -4.1838    6.4801    2.8791 H       1  LIG11       0.0619
     61 H          -3.0676    5.3234    4.7672 H       1  LIG11       0.0619
     62 H          -6.5440    0.5737    5.9097 H       1  LIG11       0.0660
     63 H          -6.3502    2.2820    6.3282 H       1  LIG11       0.0660
     64 H          -4.9107    1.2156    6.1122 H       1  LIG11       0.0660
@<TRIPOS>BOND
     1     1     4    2
     2     1     5    2
     3     1     8    1
     4     1    21    1
     5     2    18    1
     6     2    24    1
     7     3    19    1
     8     3    29    1
     9     6    32    1
    10     6    41    1
    11     7    36    1
    12     8    17    1
    13     9    17   ar
    14     9    20   ar
    15    10    19   ar
    16    10    20   ar
    17    11    21   ar
    18    11    31   ar
    19    12    30   ar
    20    12    34   ar
    21    13    15   ar
    22    13    40   ar
    23    14    16   ar
    24    14    40   ar
    25    15    16   ar
    26    17    18   ar
    27    18    19   ar
    28    20    22    1
    29    21    23   ar
    30    22    25   ar
    31    22    28   ar
    32    23    27   ar
    33    24    32   ar
    34    24    33   ar
    35    25    30   ar
    36    26    27   ar
    37    26    31   ar
    38    26    35    1
    39    28    34   ar
    40    29    36    1
    41    30    40    1
    42    32    37   ar
    43    33    38   ar
    44    37    39   ar
    45    38    39   ar
    46     7    42    1
    47     8    43    1
    48    15    44    1
    49    23    45    1
    50    25    46    1
    51    27    47    1
    52    28    48    1
    53    29    49    1
    54    29    50    1
    55    31    51    1
    56    33    52    1
    57    34    53    1
    58    35    54    1
    59    35    55    1
    60    35    56    1
    61    36    57    1
    62    36    58    1
    63    37    59    1
    64    38    60    1
    65    39    61    1
    66    41    62    1
    67    41    63    1
    68    41    64    1
@<TRIPOS>MOLECULE
../1EDN/PCA1_17-21.pdb
 47 48 0 0 0
SMALL
GASTEIGER

@<TRIPOS>ATOM
      1  N         -4.6470   -0.3680   -1.6750 N.3    17  LEU17      -0.1231
      2  CA        -5.8920   -0.8550   -2.2480 C.3    17  LEU17       0.1693
      3  CB        -6.0770   -2.3450   -1.7480 C.3    17  LEU17       0.0284
      4  CG        -7.4170   -3.0590   -2.1890 C.3    17  LEU17       0.0019
      5  CD1       -7.4920   -3.1930   -3.7220 C.3    17  LEU17       0.0001
      6  CD2       -7.5340   -4.4610   -1.6100 C.3    17  LEU17       0.0001
      7  C         -7.0080    0.1010   -1.8270 C.2    17  LEU17       0.2592
      8  O         -7.6220    0.6590   -2.7680 O.2    17  LEU17      -0.2718
      9  N         -7.2890    0.1920   -0.5460 N.am   18  ASP18      -0.1960
     10  CA        -8.2730    1.1070    0.1120 C.3    18  ASP18       0.1840
     11  CB        -8.8290    0.4520    1.4200 C.3    18  ASP18       0.1450
     12  CG        -9.9140    1.2760    2.0640 C.2    18  ASP18       0.3671
     13  OD1      -10.8560    1.7240    1.3430 O.co2  18  ASP18      -0.2456
     14  OD2       -9.7710    1.5960    3.2830 O.co2  18  ASP18      -0.2456
     15  C         -7.6270    2.4530    0.4740 C.2    18  ASP18       0.2622
     16  O         -8.0770    3.4620   -0.0480 O.2    18  ASP18      -0.2715
     17  N         -6.6010    2.4770    1.3340 N.am   19  ILE19      -0.1963
     18  CA        -6.1660    3.6270    2.0790 C.3    19  ILE19       0.1727
     19  CB        -5.0730    3.3500    3.1520 C.3    19  ILE19       0.0290
     20  CG2       -4.5850    4.5470    3.9530 C.3    19  ILE19       0.0023
     21  CG1       -5.6210    2.1420    3.9730 C.3    19  ILE19       0.0022
     22  CD1       -6.7460    2.5740    4.8760 C.3    19  ILE19       0.0001
     23  C         -5.6740    4.7260    1.1170 C.2    19  ILE19       0.2616
     24  O         -5.9640    5.8590    1.4260 O.2    19  ILE19      -0.2715
     25  N         -4.8940    4.3400    0.1060 N.am   20  ILE20      -0.1963
     26  CA        -4.3700    5.1770   -0.9560 C.3    20  ILE20       0.1727
     27  CB        -2.8480    5.4620   -0.8180 C.3    20  ILE20       0.0290
     28  CG2       -2.5210    6.1670    0.5290 C.3    20  ILE20       0.0023
     29  CG1       -1.9270    4.2500   -0.9510 C.3    20  ILE20       0.0022
     30  CD1       -0.4520    4.4090   -1.0350 C.3    20  ILE20       0.0001
     31  C         -4.8260    4.7960   -2.3980 C.2    20  ILE20       0.2617
     32  O         -4.8210    3.6210   -2.7490 O.2    20  ILE20      -0.2715
     33  N         -5.1950    5.7710   -3.1960 N.am   21  TRP21      -0.1941
     34  CA        -5.6960    5.8160   -4.5740 C.3    21  TRP21       0.1982
     35  CB        -7.1930    6.0870   -4.6010 C.3    21  TRP21       0.0394
     36  CG        -8.1480    4.9210   -4.3560 C.3    21  TRP21       0.0475
     37  CD1       -8.4270    4.3170   -3.1580 C.3    21  TRP21       0.1166
     38  NE1       -9.4680    3.4340   -3.3480 N.pl3  21  TRP21      -0.2376
     39  CE2      -10.0400    3.5420   -4.5600 C.ar   21  TRP21       0.0614
     40  CZ2      -11.2420    2.9770   -5.0990 C.ar   21  TRP21       0.0158
     41  CH2      -11.3060    3.0240   -6.5170 C.ar   21  TRP21       0.0013
     42  CZ3      -10.3640    3.7270   -7.2650 C.ar   21  TRP21      -0.0002
     43  CE3       -9.2810    4.3830   -6.7050 C.ar   21  TRP21      -0.0030
     44  CD2       -9.0950    4.3440   -5.3390 C.ar   21  TRP21      -0.0059
     45  C         -4.8510    6.8160   -5.3910 C.2    21  TRP21       0.3842
     46  O         -5.0400    8.0490   -5.1500 O.co2  21  TRP21      -0.2437
     47  OXT       -3.9720    6.3760   -6.1010 O.co2  21  TRP21      -0.2437
@<TRIPOS>BOND
     1    42    43   ar
     2    42    41   ar
     3    43    44   ar
     4    41    40   ar
     5    47    45   ar
     6    45    46   ar
     7    45    34    1
     8    44    39   ar
     9    44    36    1
    10    40    39   ar
    11    35    34    1
    12    35    36    1
    13    34    33    1
    14    39    38    1
    15    36    37    1
    16     5     4    1
    17    38    37    1
    18    33    31   am
    19     8     7    2
    20    32    31    2
    21    31    26    1
    22     2     7    1
    23     2     3    1
    24     2     1    1
    25     4     3    1
    26     4     6    1
    27     7     9   am
    28    30    29    1
    29    26    27    1
    30    26    25    1
    31    29    27    1
    32    27    28    1
    33     9    10    1
    34    16    15    2
    35    25    23   am
    36    10    15    1
    37    10    11    1
    38    15    17   am
    39    23    24    2
    40    23    18    1
    41    17    18    1
    42    13    12   ar
    43    11    12    1
    44    12    14   ar
    45    18    19    1
    46    19    20    1
    47    19    21    1
    48    21    22    1
