@<TRIPOS>MOLECULE
../1EDN/PCA2_17-21_NOBACKBONE.pdb
 26 23 0 0 0
SMALL
GASTEIGER

@<TRIPOS>ATOM
      1  CB        -5.9860   -1.2020   -0.4580 C.3    17  LEU17       0.0000
      2  CG        -7.1280   -2.2100   -0.5390 C.3    17  LEU17       0.0000
      3  CD1       -6.7120   -3.3620   -1.4700 C.3    17  LEU17       0.0000
      4  CD2       -7.4980   -2.5610    0.9130 C.3    17  LEU17       0.0000
      5  CB        -9.6810    1.0560   -1.6740 C.3    18  ASP18       0.1258
      6  CG       -11.0010    1.6360   -2.1090 C.2    18  ASP18       0.3654
      7  OD1      -11.5960    2.3310   -1.2790 O.co2  18  ASP18      -0.2456
      8  OD2      -11.5460    1.2700   -3.1630 O.co2  18  ASP18      -0.2456
      9  CB        -8.4260    4.8620    1.7600 C.3    19  ILE19       0.0000
     10  CG2       -7.7310    6.0060    2.5190 C.3    19  ILE19       0.0000
     11  CG1       -9.9240    4.5740    2.2500 C.3    19  ILE19       0.0000
     12  CD1      -10.9740    5.6950    2.0110 C.3    19  ILE19       0.0000
     13  CB        -3.5230    4.9310   -0.1080 C.3    20  ILE20       0.0000
     14  CG2       -2.1210    5.5060   -0.7390 C.3    20  ILE20       0.0000
     15  CG1       -3.5940    5.4760    1.3470 C.3    20  ILE20       0.0000
     16  CD1       -2.3570    5.1940    2.2260 C.3    20  ILE20       0.0000
     17  CB        -6.6210    3.8650   -5.0310 C.3    21  TRP21       0.0327
     18  CG        -6.7890    3.3770   -6.4480 C.ar   21  TRP21      -0.0013
     19  CD1       -7.1340    4.1960   -7.4760 C.ar   21  TRP21       0.0946
     20  NE1       -7.1740    3.4060   -8.6160 N.ar   21  TRP21      -0.2442
     21  CE2       -6.9360    2.0750   -8.3350 C.ar   21  TRP21       0.0810
     22  CZ2       -6.8300    1.0510   -9.2060 C.ar   21  TRP21       0.0191
     23  CH2       -6.3330   -0.2010   -8.7710 C.ar   21  TRP21       0.0015
     24  CZ3       -5.9560   -0.2520   -7.3640 C.ar   21  TRP21       0.0001
     25  CE3       -6.0150    0.8940   -6.5860 C.ar   21  TRP21       0.0012
     26  CD2       -6.6320    2.0560   -6.9830 C.ar   21  TRP21       0.0152
@<TRIPOS>BOND
     1    22    23   ar
     2    22    21   ar
     3    23    24   ar
     4    20    21   ar
     5    20    19   ar
     6    21    26   ar
     7    19    18   ar
     8    24    25   ar
     9    26    25   ar
    10    26    18   ar
    11    18    17    1
    12     8     6   ar
    13     6     5    1
    14     6     7   ar
    15     3     2    1
    16    14    13    1
    17     2     1    1
    18     2     4    1
    19    13    15    1
    20    15    16    1
    21     9    11    1
    22     9    10    1
    23    12    11    1
@<TRIPOS>MOLECULE
9871593
 62 65 0 0 0
SMALL
GASTEIGER

@<TRIPOS>ATOM
      1 O         -11.7738    1.2517   -3.3472 O.3     1  LIG11      -0.4526
      2 O         -12.2897    0.8874   -1.0172 O.3     1  LIG11      -0.4526
      3 O          -5.6790   -0.1699   -8.2095 O.3     1  LIG11      -0.4913
      4 O          -7.4832    4.3680   -7.6780 O.3     1  LIG11      -0.4913
      5 O          -6.4884    2.2941   -9.4328 O.3     1  LIG11      -0.4885
      6 O          -4.3748    3.3136   -4.0992 O.2     1  LIG11      -0.2870
      7 O          -7.1936    5.6456   -2.7954 O.co2   1  LIG11      -0.5446
      8 O          -7.3822    5.0553   -0.5867 O.co2   1  LIG11      -0.5446
      9 O          -2.3493    5.7759    1.3095 O.3     1  LIG11      -0.4951
     10 C          -6.5175    1.4849   -3.7501 C.3     1  LIG11       0.0021
     11 C          -6.4033    2.7706   -2.9497 C.2     1  LIG11       0.0135
     12 C          -6.6073    1.7008   -5.2584 C.ar    1  LIG11      -0.0358
     13 C          -7.4142    3.3512   -2.2595 C.2     1  LIG11       0.0117
     14 C          -8.7155    2.7336   -1.9360 C.ar    1  LIG11      -0.0121
     15 C          -5.0314    3.4009   -3.0616 C.2     1  LIG11       0.1901
     16 C          -7.1065    2.8904   -5.8056 C.ar    1  LIG11      -0.0126
     17 C          -6.1615    0.7180   -6.1416 C.ar    1  LIG11      -0.0126
     18 C          -9.6295    2.3412   -2.9242 C.ar    1  LIG11      -0.0084
     19 C         -10.7987    1.7245   -2.5229 C.ar    1  LIG11       0.1668
     20 C          -9.0368    2.5093   -0.5753 C.ar    1  LIG11      -0.0503
     21 C         -11.0940    1.5101   -1.1956 C.ar    1  LIG11       0.1663
     22 C          -6.1715    0.9230   -7.5332 C.ar    1  LIG11       0.1654
     23 C          -7.0710    3.1528   -7.1834 C.ar    1  LIG11       0.1654
     24 C          -4.3576    3.9838   -1.8708 C.ar    1  LIG11       0.0222
     25 C          -6.6109    2.1567   -8.0725 C.ar    1  LIG11       0.2035
     26 C         -10.2377    1.9020   -0.1932 C.ar    1  LIG11      -0.0156
     27 C          -7.3277    4.8360   -1.8306 C.2     1  LIG11       0.0726
     28 C         -12.7016    0.7094   -2.3870 C.3     1  LIG11       0.2332
     29 C          -4.6082    3.5372   -0.5688 C.ar    1  LIG11      -0.0475
     30 C          -3.3815    4.9684   -2.0841 C.ar    1  LIG11      -0.0475
     31 C          -3.9468    4.1228    0.5143 C.ar    1  LIG11      -0.0193
     32 C          -2.7088    5.5392   -1.0027 C.ar    1  LIG11      -0.0193
     33 C          -3.0198    5.1427    0.2960 C.ar    1  LIG11       0.1201
     34 C          -5.9778   -0.2980   -9.5904 C.3     1  LIG11       0.0790
     35 C          -7.4075    5.4801   -6.7825 C.3     1  LIG11       0.0790
     36 C          -7.0787    3.4034  -10.0896 C.3     1  LIG11       0.0791
     37 C          -3.2283    6.2182    2.3435 C.3     1  LIG11       0.0788
     38 H          -7.3793    0.8850   -3.4422 H       1  LIG11       0.0363
     39 H          -5.6370    0.8664   -3.5291 H       1  LIG11       0.0363
     40 H          -7.4795    3.6515   -5.1247 H       1  LIG11       0.0658
     41 H          -5.7746   -0.2212   -5.7526 H       1  LIG11       0.0658
     42 H          -9.4338    2.5074   -3.9756 H       1  LIG11       0.0661
     43 H          -8.3448    2.8383    0.1999 H       1  LIG11       0.0625
     44 H         -10.4798    1.7535    0.8515 H       1  LIG11       0.0655
     45 H         -12.8164   -0.3643   -2.5783 H       1  LIG11       0.1166
     46 H         -13.6749    1.1945   -2.5260 H       1  LIG11       0.1166
     47 H          -5.3440    2.7613   -0.3755 H       1  LIG11       0.0626
     48 H          -3.1650    5.3034   -3.0952 H       1  LIG11       0.0626
     49 H          -4.1806    3.7802    1.5162 H       1  LIG11       0.0654
     50 H          -1.9720    6.3169   -1.1751 H       1  LIG11       0.0654
     51 H          -5.7699   -1.3336   -9.8771 H       1  LIG11       0.0660
     52 H          -5.3186    0.3365  -10.1917 H       1  LIG11       0.0660
     53 H          -7.0353   -0.1114   -9.8033 H       1  LIG11       0.0660
     54 H          -7.4801    6.3918   -7.3835 H       1  LIG11       0.0660
     55 H          -6.4517    5.5121   -6.2479 H       1  LIG11       0.0660
     56 H          -8.2551    5.4747   -6.0896 H       1  LIG11       0.0660
     57 H          -6.9960    3.2263  -11.1669 H       1  LIG11       0.0660
     58 H          -6.5306    4.3261   -9.8783 H       1  LIG11       0.0660
     59 H          -8.1458    3.4878   -9.8621 H       1  LIG11       0.0660
     60 H          -2.7038    6.9869    2.9187 H       1  LIG11       0.0660
     61 H          -3.4663    5.3954    3.0244 H       1  LIG11       0.0660
     62 H          -4.1441    6.6681    1.9414 H       1  LIG11       0.0660
@<TRIPOS>BOND
     1     1    19    1
     2     1    28    1
     3     2    28    1
     4     2    21    1
     5     3    22    1
     6     3    34    1
     7     4    23    1
     8     4    35    1
     9     5    25    1
    10     5    36    1
    11     6    15    2
    12     7    27   ar
    13     8    27   ar
    14     9    33    1
    15     9    37    1
    16    10    11    1
    17    10    12    1
    18    11    13    2
    19    11    15    1
    20    12    16   ar
    21    12    17   ar
    22    13    14    1
    23    13    27    1
    24    14    20   ar
    25    14    18   ar
    26    15    24    1
    27    16    23   ar
    28    17    22   ar
    29    18    19   ar
    30    19    21   ar
    31    20    26   ar
    32    21    26   ar
    33    22    25   ar
    34    23    25   ar
    35    24    29   ar
    36    24    30   ar
    37    29    31   ar
    38    30    32   ar
    39    31    33   ar
    40    32    33   ar
    41    10    38    1
    42    10    39    1
    43    16    40    1
    44    17    41    1
    45    18    42    1
    46    20    43    1
    47    26    44    1
    48    28    45    1
    49    28    46    1
    50    29    47    1
    51    30    48    1
    52    31    49    1
    53    32    50    1
    54    34    51    1
    55    34    52    1
    56    34    53    1
    57    35    54    1
    58    35    55    1
    59    35    56    1
    60    36    57    1
    61    36    58    1
    62    36    59    1
    63    37    60    1
    64    37    61    1
    65    37    62    1
@<TRIPOS>MOLECULE
../1EDN/PCA2_17-21.pdb
 47 48 0 0 0
SMALL
GASTEIGER

@<TRIPOS>ATOM
      1  N         -4.4680    0.3970   -1.5420 N.3    17  LEU17      -0.1231
      2  CA        -5.5730   -0.5090   -1.8150 C.3    17  LEU17       0.1693
      3  CB        -5.9860   -1.2020   -0.4580 C.3    17  LEU17       0.0284
      4  CG        -7.1280   -2.2100   -0.5390 C.3    17  LEU17       0.0019
      5  CD1       -6.7120   -3.3620   -1.4700 C.3    17  LEU17       0.0001
      6  CD2       -7.4980   -2.5610    0.9130 C.3    17  LEU17       0.0001
      7  C         -6.7000    0.2280   -2.5610 C.2    17  LEU17       0.2592
      8  O         -7.1860   -0.2780   -3.5510 O.2    17  LEU17      -0.2718
      9  N         -7.2650    1.2690   -1.9650 N.am   18  ASP18      -0.1960
     10  CA        -8.5260    1.8930   -2.2590 C.3    18  ASP18       0.1840
     11  CB        -9.6810    1.0560   -1.6740 C.3    18  ASP18       0.1450
     12  CG       -11.0010    1.6360   -2.1090 C.2    18  ASP18       0.3671
     13  OD1      -11.5960    2.3310   -1.2790 O.co2  18  ASP18      -0.2456
     14  OD2      -11.5460    1.2700   -3.1630 O.co2  18  ASP18      -0.2456
     15  C         -8.5570    3.3770   -1.7380 C.2    18  ASP18       0.2622
     16  O         -8.6960    4.2620   -2.5680 O.2    18  ASP18      -0.2715
     17  N         -8.4180    3.5730   -0.4160 N.am   19  ILE19      -0.1963
     18  CA        -8.3980    4.9040    0.1930 C.3    19  ILE19       0.1727
     19  CB        -8.4260    4.8620    1.7600 C.3    19  ILE19       0.0290
     20  CG2       -7.7310    6.0060    2.5190 C.3    19  ILE19       0.0023
     21  CG1       -9.9240    4.5740    2.2500 C.3    19  ILE19       0.0022
     22  CD1      -10.9740    5.6950    2.0110 C.3    19  ILE19       0.0001
     23  C         -7.1570    5.7010   -0.3260 C.2    19  ILE19       0.2616
     24  O         -7.3050    6.7970   -0.9200 O.2    19  ILE19      -0.2715
     25  N         -5.9900    5.0720   -0.2260 N.am   20  ILE20      -0.1963
     26  CA        -4.7520    5.3490   -0.9430 C.3    20  ILE20       0.1727
     27  CB        -3.5230    4.9310   -0.1080 C.3    20  ILE20       0.0290
     28  CG2       -2.1210    5.5060   -0.7390 C.3    20  ILE20       0.0023
     29  CG1       -3.5940    5.4760    1.3470 C.3    20  ILE20       0.0022
     30  CD1       -2.3570    5.1940    2.2260 C.3    20  ILE20       0.0001
     31  C         -4.7590    4.7050   -2.3650 C.2    20  ILE20       0.2617
     32  O         -4.2060    3.6200   -2.5900 O.2    20  ILE20      -0.2715
     33  N         -5.4060    5.3330   -3.3880 N.am   21  TRP21      -0.1938
     34  CA        -5.3950    4.7680   -4.7850 C.3    21  TRP21       0.2021
     35  CB        -6.6210    3.8650   -5.0310 C.3    21  TRP21       0.0612
     36  CG        -6.7890    3.3770   -6.4480 C.ar   21  TRP21       0.0007
     37  CD1       -7.1340    4.1960   -7.4760 C.ar   21  TRP21       0.0946
     38  NE1       -7.1740    3.4060   -8.6160 N.ar   21  TRP21      -0.2442
     39  CE2       -6.9360    2.0750   -8.3350 C.ar   21  TRP21       0.0810
     40  CZ2       -6.8300    1.0510   -9.2060 C.ar   21  TRP21       0.0191
     41  CH2       -6.3330   -0.2010   -8.7710 C.ar   21  TRP21       0.0015
     42  CZ3       -5.9560   -0.2520   -7.3640 C.ar   21  TRP21       0.0001
     43  CE3       -6.0150    0.8940   -6.5860 C.ar   21  TRP21       0.0012
     44  CD2       -6.6320    2.0560   -6.9830 C.ar   21  TRP21       0.0152
     45  C         -5.1960    5.8550   -5.8260 C.2    21  TRP21       0.3845
     46  O         -4.1840    5.6720   -6.5070 O.co2  21  TRP21      -0.2437
     47  OXT       -5.9640    6.8330   -6.0170 O.co2  21  TRP21      -0.2437
@<TRIPOS>BOND
     1    40    41   ar
     2    40    39   ar
     3    41    42   ar
     4    38    39   ar
     5    38    37   ar
     6    39    44   ar
     7    37    36   ar
     8    42    43   ar
     9    44    43   ar
    10    44    36   ar
    11    46    45   ar
    12    36    35    1
    13    47    45   ar
    14    45    34    1
    15    35    34    1
    16    34    33    1
    17     8     7    2
    18    33    31   am
    19    14    12   ar
    20    32    31    2
    21    16    15    2
    22     7     9   am
    23     7     2    1
    24    31    26    1
    25    10     9    1
    26    10    15    1
    27    10    11    1
    28    12    11    1
    29    12    13   ar
    30     2     1    1
    31     2     3    1
    32    15    17   am
    33     5     4    1
    34    26    25    1
    35    26    27    1
    36    24    23    2
    37    28    27    1
    38     4     3    1
    39     4     6    1
    40    17    18    1
    41    23    25   am
    42    23    18    1
    43    27    29    1
    44    18    19    1
    45    29    30    1
    46    19    21    1
    47    19    20    1
    48    22    21    1
