@<TRIPOS>MOLECULE
../1EDN/PCA3_17-21_NOBACKBONE.pdb
 26 23 0 0 0
SMALL
GASTEIGER

@<TRIPOS>ATOM
      1  CB        -5.7360   -1.8160   -1.1010 C.3    17  LEU17       0.0000
      2  CG        -6.9950   -2.5690   -1.5730 C.3    17  LEU17       0.0000
      3  CD1       -6.7530   -3.1800   -3.0080 C.3    17  LEU17       0.0000
      4  CD2       -7.2580   -3.7400   -0.6960 C.3    17  LEU17       0.0000
      5  CB        -9.1090    1.3410    0.3760 C.3    18  ASP18       0.1258
      6  CG       -10.1470    2.2990    0.9520 C.2    18  ASP18       0.3654
      7  OD1      -11.0720    2.5310    0.1500 O.co2  18  ASP18      -0.2456
      8  OD2      -10.1960    2.6850    2.1610 O.co2  18  ASP18      -0.2456
      9  CB        -5.3140    3.8890    3.0670 C.3    19  ILE19       0.0000
     10  CG2       -4.6600    5.0630    3.8540 C.3    19  ILE19       0.0000
     11  CG1       -6.1440    2.9790    3.9890 C.3    19  ILE19       0.0000
     12  CD1       -5.5170    2.2940    5.2130 C.3    19  ILE19       0.0000
     13  CB        -2.4460    5.7340   -1.0120 C.3    20  ILE20       0.0000
     14  CG2       -2.3030    7.0110   -0.1100 C.3    20  ILE20       0.0000
     15  CG1       -1.4300    4.6170   -0.6100 C.3    20  ILE20       0.0000
     16  CD1        0.0800    4.9990   -0.7110 C.3    20  ILE20       0.0000
     17  CB        -6.2680    3.7450   -4.8170 C.3    21  TRP21       0.0327
     18  CG        -6.5090    2.9660   -6.0890 C.ar   21  TRP21      -0.0013
     19  CD1       -7.0550    3.4090   -7.2190 C.ar   21  TRP21       0.0946
     20  NE1       -7.1560    2.4190   -8.1260 N.ar   21  TRP21      -0.2442
     21  CE2       -6.6880    1.2600   -7.6470 C.ar   21  TRP21       0.0810
     22  CZ2       -6.5320   -0.1050   -8.0600 C.ar   21  TRP21       0.0191
     23  CH2       -5.9630   -1.0770   -7.2340 C.ar   21  TRP21       0.0015
     24  CZ3       -5.4330   -0.7150   -5.9030 C.ar   21  TRP21       0.0001
     25  CE3       -5.5290    0.6400   -5.5430 C.ar   21  TRP21       0.0012
     26  CD2       -6.2440    1.5830   -6.3190 C.ar   21  TRP21       0.0152
@<TRIPOS>BOND
     1    20    21   ar
     2    20    19   ar
     3    22    21   ar
     4    22    23   ar
     5    21    26   ar
     6    23    24   ar
     7    19    18   ar
     8    26    18   ar
     9    26    25   ar
    10    18    17    1
    11    24    25   ar
    12     3     2    1
    13     2     1    1
    14     2     4    1
    15    13    15    1
    16    13    14    1
    17    16    15    1
    18     7     6   ar
    19     5     6    1
    20     6     8   ar
    21     9    10    1
    22     9    11    1
    23    11    12    1
@<TRIPOS>MOLECULE
23693553
 97 99 0 0 0
SMALL
GASTEIGER

@<TRIPOS>ATOM
      1 O          -5.5659    2.5414    2.5854 O.2     1  LIG11      -0.2526
      2 O          -5.9490    5.6996    0.5500 O.2     1  LIG11      -0.2731
      3 O          -4.9360    2.5644   -1.9358 O.2     1  LIG11      -0.2689
      4 O          -8.7510    6.9516   -1.2914 O.co2   1  LIG11      -0.5479
      5 OXT        -6.7609    6.6416   -2.3783 O.co2   1  LIG11      -0.5479
      6 O          -8.9207    4.0914   -8.2000 O.3     1  LIG11      -0.4515
      7 O          -8.8913    2.1302   -9.4325 O.2     1  LIG11      -0.2227
      8 N          -4.8914    4.1039    4.1488 N.am    1  LIG11      -0.2801
      9 N          -4.2390    4.2535    1.9040 N.am    1  LIG11      -0.2879
     10 N          -6.3311    4.2028   -1.1560 N.am    1  LIG11      -0.2273
     11 N          -6.2975    5.1072   -4.0903 N.4     1  LIG11       0.2276
     12 N          -7.4191    2.4713   -7.6860 N.ar    1  LIG11      -0.2526
     13 C          -4.1447    5.3290    4.5135 C.3     1  LIG11       0.0249
     14 C          -5.7048    3.4158    5.1696 C.3     1  LIG11       0.0249
     15 C          -3.6218    5.3554    5.9628 C.3     1  LIG11      -0.0344
     16 C          -5.2203    3.6135    6.6129 C.3     1  LIG11      -0.0344
     17 C          -3.7581    4.0166    6.6658 C.3     1  LIG11      -0.0497
     18 CA         -4.3687    3.8828    0.4883 C.3     1  LIG11       0.1019
     19 C          -2.1516    5.3145   -0.2176 C.3     1  LIG11      -0.0356
     20 C          -3.0240    4.0270   -0.2578 C.3     1  LIG11      -0.0210
     21 C          -4.9473    3.5680    2.8595 C.2     1  LIG11       0.3033
     22 C          -4.9551    6.5987    4.2261 C.3     1  LIG11      -0.0464
     23 C          -7.1887    3.7783    5.0483 C.3     1  LIG11      -0.0464
     24 C          -5.6113    4.6631   -0.0395 C.2     1  LIG11       0.2429
     25 C          -0.9018    5.0312   -1.0905 C.3     1  LIG11      -0.0600
     26 C          -1.6475    5.6669    1.1900 C.3     1  LIG11      -0.0600
     27 C          -2.8911    6.5155   -0.8184 C.3     1  LIG11      -0.0600
     28 CA         -7.7060    4.7834   -1.2994 C.3     1  LIG11       0.0730
     29 C          -8.7000    4.1823   -0.2882 C.3     1  LIG11      -0.0286
     30 C          -5.7379    3.4699   -2.1779 C.2     1  LIG11       0.2708
     31 CA         -6.2140    3.6746   -3.6454 C.3     1  LIG11       0.0579
     32 C          -9.0357    2.7264   -0.6742 C.3     1  LIG11      -0.0513
     33 C          -5.3027    2.9281   -4.6461 C.3     1  LIG11       0.0261
     34 C          -7.7209    6.3098   -1.5943 C.2     1  LIG11       0.0626
     35 C          -6.0216    2.5072   -5.8982 C.ar    1  LIG11      -0.0158
     36 C         -10.3262    2.1931   -0.0547 C.3     1  LIG11      -0.0558
     37 C          -5.9770    1.2087   -6.4897 C.ar    1  LIG11       0.0038
     38 C          -6.8446    3.2694   -6.6986 C.ar    1  LIG11       0.0202
     39 C          -6.8141    1.2139   -7.6118 C.ar    1  LIG11       0.0598
     40 C         -10.2349    1.9828    1.4446 C.3     1  LIG11      -0.0653
     41 C          -5.2960    0.0166   -6.1551 C.ar    1  LIG11      -0.0523
     42 C          -6.9682    0.0675   -8.4134 C.ar    1  LIG11      -0.0371
     43 C          -5.4526   -1.1242   -6.9456 C.ar    1  LIG11      -0.0611
     44 C          -8.4604    2.8614   -8.5548 C.2     1  LIG11       0.4196
     45 C          -6.2744   -1.0950   -8.0637 C.ar    1  LIG11      -0.0598
     46 C         -10.1064    4.4921   -8.8895 C.3     1  LIG11       0.0835
     47 H          -4.3212    5.2515    2.0295 H       1  LIG11       0.1510
     48 H1         -5.6385    5.4132   -4.8074 H       1  LIG11       0.2002
     49 H2         -7.2460    5.3807   -4.3734 H       1  LIG11       0.2002
     50 H3         -6.1654    5.7947   -3.2938 H       1  LIG11       0.2002
     51 H          -3.2550    5.3593    3.8748 H       1  LIG11       0.0498
     52 H          -5.6214    2.3404    4.9617 H       1  LIG11       0.0498
     53 H          -2.5718    5.6727    5.9684 H       1  LIG11       0.0283
     54 H          -4.1595    6.1135    6.5485 H       1  LIG11       0.0283
     55 H          -5.8202    4.3819    7.1184 H       1  LIG11       0.0283
     56 H          -5.3754    2.6878    7.1803 H       1  LIG11       0.0283
     57 H          -3.1250    3.2598    6.1884 H       1  LIG11       0.0266
     58 H          -3.4309    4.1086    7.7073 H       1  LIG11       0.0266
     59 HA         -4.6428    2.8217    0.4555 H       1  LIG11       0.0595
     60 H          -2.3911    3.2058    0.1118 H       1  LIG11       0.0293
     61 H          -3.1803    3.8102   -1.3171 H       1  LIG11       0.0293
     62 H          -5.8432    6.6549    4.8635 H       1  LIG11       0.0248
     63 H          -4.3485    7.4915    4.4144 H       1  LIG11       0.0248
     64 H          -5.2989    6.6447    3.1894 H       1  LIG11       0.0248
     65 H          -7.3550    4.8429    5.2417 H       1  LIG11       0.0248
     66 H          -7.5748    3.5636    4.0467 H       1  LIG11       0.0248
     67 H          -7.7857    3.2061    5.7666 H       1  LIG11       0.0248
     68 H          -1.1818    4.7885   -2.1220 H       1  LIG11       0.0235
     69 H          -0.2308    5.8969   -1.1258 H       1  LIG11       0.0235
     70 H          -0.3280    4.1851   -0.6933 H       1  LIG11       0.0235
     71 H          -2.4222    6.1411    1.7964 H       1  LIG11       0.0235
     72 H          -1.2839    4.7785    1.7181 H       1  LIG11       0.0235
     73 H          -0.8173    6.3821    1.1437 H       1  LIG11       0.0235
     74 H          -3.7187    6.8392   -0.1821 H       1  LIG11       0.0235
     75 H          -2.2172    7.3728   -0.9324 H       1  LIG11       0.0235
     76 H          -3.2936    6.2782   -1.8094 H       1  LIG11       0.0235
     77 HA         -8.0991    4.4318   -2.2588 H       1  LIG11       0.0567
     78 H          -8.2966    4.2128    0.7300 H       1  LIG11       0.0287
     79 H          -9.6237    4.7719   -0.2823 H       1  LIG11       0.0287
     80 HA         -7.2290    3.2646   -3.7127 H       1  LIG11       0.0952
     81 H          -9.1600    2.6553   -1.7625 H       1  LIG11       0.0266
     82 H          -8.1948    2.0716   -0.4157 H       1  LIG11       0.0266
     83 H          -4.4382    3.5481   -4.9180 H       1  LIG11       0.0374
     84 H          -4.8854    2.0282   -4.1832 H       1  LIG11       0.0374
     85 H         -11.1591    2.8677   -0.2851 H       1  LIG11       0.0263
     86 H         -10.5639    1.2317   -0.5272 H       1  LIG11       0.0263
     87 H          -7.1316    4.3102   -6.6444 H       1  LIG11       0.0818
     88 H         -10.0840    2.9289    1.9715 H       1  LIG11       0.0230
     89 H         -11.1627    1.5335    1.8138 H       1  LIG11       0.0230
     90 H          -9.4106    1.3076    1.6946 H       1  LIG11       0.0230
     91 H          -4.6450   -0.0289   -5.2856 H       1  LIG11       0.0624
     92 H          -7.6153    0.0635   -9.2868 H       1  LIG11       0.0638
     93 H          -4.9274   -2.0393   -6.6816 H       1  LIG11       0.0618
     94 H          -6.3879   -1.9891   -8.6727 H       1  LIG11       0.0618
     95 H         -10.5676    5.3022   -8.3174 H       1  LIG11       0.0661
     96 H          -9.8483    4.8648   -9.8842 H       1  LIG11       0.0661
     97 H         -10.8295    3.6725   -8.9567 H       1  LIG11       0.0661
@<TRIPOS>BOND
     1     1    21    2
     2     2    24    2
     3     3    30    2
     4     4    34   ar
     5     5    34   ar
     6     6    44    1
     7     6    46    1
     8     7    44    2
     9     8    13    1
    10     8    14    1
    11     9    21   am
    12    10    24   am
    13    10    30   am
    14    12    39   ar
    15    12    38   ar
    16    12    44   am
    17    13    15    1
    18    13    22    1
    19    14    16    1
    20    14    23    1
    21    15    17    1
    22    16    17    1
    23    18     9    1
    24    18    24    1
    25    18    20    1
    26    19    20    1
    27    19    27    1
    28    19    26    1
    29    19    25    1
    30    21     8   am
    31    28    34    1
    32    28    29    1
    33    28    10    1
    34    29    32    1
    35    31    33    1
    36    31    11    1
    37    31    30    1
    38    32    36    1
    39    33    35    1
    40    35    38   ar
    41    35    37   ar
    42    36    40    1
    43    37    39   ar
    44    37    41   ar
    45    39    42   ar
    46    41    43   ar
    47    42    45   ar
    48    43    45   ar
    49     9    47    1
    50    11    48    1
    51    11    49    1
    52    11    50    1
    53    13    51    1
    54    14    52    1
    55    15    53    1
    56    15    54    1
    57    16    55    1
    58    16    56    1
    59    17    57    1
    60    17    58    1
    61    18    59    1
    62    20    60    1
    63    20    61    1
    64    22    62    1
    65    22    63    1
    66    22    64    1
    67    23    65    1
    68    23    66    1
    69    23    67    1
    70    25    68    1
    71    25    69    1
    72    25    70    1
    73    26    71    1
    74    26    72    1
    75    26    73    1
    76    27    74    1
    77    27    75    1
    78    27    76    1
    79    28    77    1
    80    29    78    1
    81    29    79    1
    82    31    80    1
    83    32    81    1
    84    32    82    1
    85    33    83    1
    86    33    84    1
    87    36    85    1
    88    36    86    1
    89    38    87    1
    90    40    88    1
    91    40    89    1
    92    40    90    1
    93    41    91    1
    94    42    92    1
    95    43    93    1
    96    45    94    1
    97    46    95    1
    98    46    96    1
    99    46    97    1
@<TRIPOS>MOLECULE
../1EDN/PCA3_17-21.pdb
 47 48 0 0 0
SMALL
GASTEIGER

@<TRIPOS>ATOM
      1  N         -4.2370    0.0490   -1.5930 N.3    17  LEU17      -0.1231
      2  CA        -5.5250   -0.5610   -1.9200 C.3    17  LEU17       0.1693
      3  CB        -5.7360   -1.8160   -1.1010 C.3    17  LEU17       0.0284
      4  CG        -6.9950   -2.5690   -1.5730 C.3    17  LEU17       0.0019
      5  CD1       -6.7530   -3.1800   -3.0080 C.3    17  LEU17       0.0001
      6  CD2       -7.2580   -3.7400   -0.6960 C.3    17  LEU17       0.0001
      7  C         -6.6810    0.4320   -1.9250 C.2    17  LEU17       0.2592
      8  O         -7.3270    0.6200   -2.9560 O.2    17  LEU17      -0.2718
      9  N         -6.9500    1.1080   -0.7900 N.am   18  ASP18      -0.1960
     10  CA        -8.0880    2.0070   -0.5710 C.3    18  ASP18       0.1840
     11  CB        -9.1090    1.3410    0.3760 C.3    18  ASP18       0.1450
     12  CG       -10.1470    2.2990    0.9520 C.2    18  ASP18       0.3671
     13  OD1      -11.0720    2.5310    0.1500 O.co2  18  ASP18      -0.2456
     14  OD2      -10.1960    2.6850    2.1610 O.co2  18  ASP18      -0.2456
     15  C         -7.6280    3.3500    0.0060 C.2    18  ASP18       0.2622
     16  O         -7.9950    4.4650   -0.3580 O.2    18  ASP18      -0.2715
     17  N         -6.8140    3.2050    1.0390 N.am   19  ILE19      -0.1963
     18  CA        -6.1800    4.3790    1.8160 C.3    19  ILE19       0.1727
     19  CB        -5.3140    3.8890    3.0670 C.3    19  ILE19       0.0290
     20  CG2       -4.6600    5.0630    3.8540 C.3    19  ILE19       0.0023
     21  CG1       -6.1440    2.9790    3.9890 C.3    19  ILE19       0.0022
     22  CD1       -5.5170    2.2940    5.2130 C.3    19  ILE19       0.0001
     23  C         -5.2670    5.2520    0.8640 C.2    19  ILE19       0.2616
     24  O         -5.3920    6.4650    0.9090 O.2    19  ILE19      -0.2715
     25  N         -4.4890    4.6060    0.0020 N.am   20  ILE20      -0.1963
     26  CA        -3.9690    5.2910   -1.1850 C.3    20  ILE20       0.1727
     27  CB        -2.4460    5.7340   -1.0120 C.3    20  ILE20       0.0290
     28  CG2       -2.3030    7.0110   -0.1100 C.3    20  ILE20       0.0023
     29  CG1       -1.4300    4.6170   -0.6100 C.3    20  ILE20       0.0022
     30  CD1        0.0800    4.9990   -0.7110 C.3    20  ILE20       0.0001
     31  C         -4.1660    4.3690   -2.4130 C.2    20  ILE20       0.2617
     32  O         -3.9200    3.1710   -2.5010 O.2    20  ILE20      -0.2715
     33  N         -4.6410    5.0460   -3.5090 N.am   21  TRP21      -0.1938
     34  CA        -4.8980    4.4430   -4.8120 C.3    21  TRP21       0.2021
     35  CB        -6.2680    3.7450   -4.8170 C.3    21  TRP21       0.0612
     36  CG        -6.5090    2.9660   -6.0890 C.ar   21  TRP21       0.0007
     37  CD1       -7.0550    3.4090   -7.2190 C.ar   21  TRP21       0.0946
     38  NE1       -7.1560    2.4190   -8.1260 N.ar   21  TRP21      -0.2442
     39  CE2       -6.6880    1.2600   -7.6470 C.ar   21  TRP21       0.0810
     40  CZ2       -6.5320   -0.1050   -8.0600 C.ar   21  TRP21       0.0191
     41  CH2       -5.9630   -1.0770   -7.2340 C.ar   21  TRP21       0.0015
     42  CZ3       -5.4330   -0.7150   -5.9030 C.ar   21  TRP21       0.0001
     43  CE3       -5.5290    0.6400   -5.5430 C.ar   21  TRP21       0.0012
     44  CD2       -6.2440    1.5830   -6.3190 C.ar   21  TRP21       0.0152
     45  C         -4.7460    5.5030   -5.9410 C.2    21  TRP21       0.3845
     46  O         -5.6740    6.3580   -6.0770 O.co2  21  TRP21      -0.2437
     47  OXT       -3.7150    5.4030   -6.6310 O.co2  21  TRP21      -0.2437
@<TRIPOS>BOND
     1    38    39   ar
     2    38    37   ar
     3    40    39   ar
     4    40    41   ar
     5    39    44   ar
     6    41    42   ar
     7    37    36   ar
     8    47    45   ar
     9    44    36   ar
    10    44    43   ar
    11    36    35    1
    12    46    45   ar
    13    45    34    1
    14    42    43   ar
    15    35    34    1
    16    34    33    1
    17    33    31   am
    18     5     4    1
    19     8     7    2
    20    32    31    2
    21    31    26    1
    22     7     2    1
    23     7     9   am
    24     2     1    1
    25     2     3    1
    26     4     3    1
    27     4     6    1
    28    26    27    1
    29    26    25    1
    30    27    29    1
    31    27    28    1
    32     9    10    1
    33    30    29    1
    34    10    15    1
    35    10    11    1
    36    16    15    2
    37    25    23   am
    38    15    17   am
    39    13    12   ar
    40    11    12    1
    41    23    24    2
    42    23    18    1
    43    12    14   ar
    44    17    18    1
    45    18    19    1
    46    19    20    1
    47    19    21    1
    48    21    22    1
