@<TRIPOS>MOLECULE
../1EDN/PCA3_17-21_NOBACKBONE.pdb
 26 23 0 0 0
SMALL
GASTEIGER

@<TRIPOS>ATOM
      1  CB        -5.7360   -1.8160   -1.1010 C.3    17  LEU17       0.0000
      2  CG        -6.9950   -2.5690   -1.5730 C.3    17  LEU17       0.0000
      3  CD1       -6.7530   -3.1800   -3.0080 C.3    17  LEU17       0.0000
      4  CD2       -7.2580   -3.7400   -0.6960 C.3    17  LEU17       0.0000
      5  CB        -9.1090    1.3410    0.3760 C.3    18  ASP18       0.1258
      6  CG       -10.1470    2.2990    0.9520 C.2    18  ASP18       0.3654
      7  OD1      -11.0720    2.5310    0.1500 O.co2  18  ASP18      -0.2456
      8  OD2      -10.1960    2.6850    2.1610 O.co2  18  ASP18      -0.2456
      9  CB        -5.3140    3.8890    3.0670 C.3    19  ILE19       0.0000
     10  CG2       -4.6600    5.0630    3.8540 C.3    19  ILE19       0.0000
     11  CG1       -6.1440    2.9790    3.9890 C.3    19  ILE19       0.0000
     12  CD1       -5.5170    2.2940    5.2130 C.3    19  ILE19       0.0000
     13  CB        -2.4460    5.7340   -1.0120 C.3    20  ILE20       0.0000
     14  CG2       -2.3030    7.0110   -0.1100 C.3    20  ILE20       0.0000
     15  CG1       -1.4300    4.6170   -0.6100 C.3    20  ILE20       0.0000
     16  CD1        0.0800    4.9990   -0.7110 C.3    20  ILE20       0.0000
     17  CB        -6.2680    3.7450   -4.8170 C.3    21  TRP21       0.0327
     18  CG        -6.5090    2.9660   -6.0890 C.ar   21  TRP21      -0.0013
     19  CD1       -7.0550    3.4090   -7.2190 C.ar   21  TRP21       0.0946
     20  NE1       -7.1560    2.4190   -8.1260 N.ar   21  TRP21      -0.2442
     21  CE2       -6.6880    1.2600   -7.6470 C.ar   21  TRP21       0.0810
     22  CZ2       -6.5320   -0.1050   -8.0600 C.ar   21  TRP21       0.0191
     23  CH2       -5.9630   -1.0770   -7.2340 C.ar   21  TRP21       0.0015
     24  CZ3       -5.4330   -0.7150   -5.9030 C.ar   21  TRP21       0.0001
     25  CE3       -5.5290    0.6400   -5.5430 C.ar   21  TRP21       0.0012
     26  CD2       -6.2440    1.5830   -6.3190 C.ar   21  TRP21       0.0152
@<TRIPOS>BOND
     1    20    21   ar
     2    20    19   ar
     3    22    21   ar
     4    22    23   ar
     5    21    26   ar
     6    23    24   ar
     7    19    18   ar
     8    26    18   ar
     9    26    25   ar
    10    18    17    1
    11    24    25   ar
    12     3     2    1
    13     2     1    1
    14     2     4    1
    15    13    15    1
    16    13    14    1
    17    16    15    1
    18     7     6   ar
    19     5     6    1
    20     6     8   ar
    21     9    10    1
    22     9    11    1
    23    11    12    1
@<TRIPOS>MOLECULE
178103
 66 70 0 0 0
SMALL
GASTEIGER

@<TRIPOS>ATOM
      1 O          -7.4609   -1.9621   -1.5192 O.co2   1  LIG11      -0.5495
      2 O          -5.6228   -2.4201   -2.7607 O.co2   1  LIG11      -0.5495
      3 O          -2.8976    4.3360   -0.6450 O.3     1  LIG11      -0.4920
      4 O          -7.5491    3.0173   -2.0384 O.3     1  LIG11      -0.4893
      5 O          -6.5418    2.5897   -7.7947 O.3     1  LIG11      -0.4526
      6 O          -6.8909    0.5326   -9.0096 O.3     1  LIG11      -0.4526
      7 O         -10.6853    2.4814    1.4897 O.3     1  LIG11      -0.4950
      8 O          -6.7180    6.4910   -2.8392 O.3     1  LIG11      -0.3917
      9 C          -6.3817   -0.1570   -2.6164 C.3     1  LIG11       0.0203
     10 C          -6.0539    0.5867   -1.2956 C.3     1  LIG11       0.0218
     11 C          -5.2391    0.1430   -3.6159 C.3     1  LIG11       0.0184
     12 C          -5.0052    1.5936   -1.7142 C.ar    1  LIG11      -0.0320
     13 C          -4.5602    1.3523   -3.0131 C.ar    1  LIG11      -0.0353
     14 C          -7.2761    1.1499   -0.5733 C.ar    1  LIG11       0.0025
     15 C          -5.7363    0.2668   -5.0536 C.ar    1  LIG11      -0.0356
     16 C          -6.4934   -1.6470   -2.2695 C.2     1  LIG11       0.0466
     17 C          -4.4204    2.5919   -0.9398 C.ar    1  LIG11      -0.0159
     18 C          -3.5197    2.0990   -3.5519 C.ar    1  LIG11      -0.0542
     19 C          -7.9688    2.3167   -0.9352 C.ar    1  LIG11       0.1278
     20 C          -3.3995    3.3779   -1.4861 C.ar    1  LIG11       0.1208
     21 C          -5.9680    1.4985   -5.6898 C.ar    1  LIG11      -0.0124
     22 C          -2.9528    3.1268   -2.7918 C.ar    1  LIG11      -0.0196
     23 C          -5.9700   -0.9297   -5.7791 C.ar    1  LIG11      -0.0543
     24 C          -7.7654    0.4130    0.5238 C.ar    1  LIG11      -0.0510
     25 C          -6.3426    1.4888   -7.0192 C.ar    1  LIG11       0.1665
     26 C          -6.3799   -0.9100   -7.1158 C.ar    1  LIG11      -0.0159
     27 C          -9.1104    2.7098   -0.2158 C.ar    1  LIG11       0.0221
     28 C          -8.8913    0.8188    1.2461 C.ar    1  LIG11      -0.0194
     29 C          -6.5392    0.3173   -7.7121 C.ar    1  LIG11       0.1662
     30 C          -9.5683    1.9749    0.8801 C.ar    1  LIG11       0.1236
     31 C          -2.0297    5.3081   -1.2240 C.3     1  LIG11       0.0893
     32 C          -6.8430    1.9716   -9.0623 C.3     1  LIG11       0.2332
     33 C          -7.5495    4.4360   -1.8594 C.3     1  LIG11       0.1126
     34 C          -1.5683    6.2787   -0.1385 C.3     1  LIG11      -0.0215
     35 C          -6.7143    5.0709   -2.9640 C.3     1  LIG11       0.0783
     36 C         -11.1782    1.7561    2.6094 C.3     1  LIG11       0.0788
     37 C          -2.7203    7.0311    0.5104 C.3     1  LIG11      -0.0622
     38 H          -6.1231    6.8237   -3.5325 H       1  LIG11       0.2095
     39 H          -7.3495    0.1702   -3.0226 H       1  LIG11       0.0379
     40 H          -5.5287   -0.0902   -0.6044 H       1  LIG11       0.0405
     41 H          -4.4604   -0.6310   -3.6108 H       1  LIG11       0.0404
     42 H          -4.7552    2.7583    0.0796 H       1  LIG11       0.0657
     43 H          -3.1415    1.8762   -4.5453 H       1  LIG11       0.0622
     44 H          -5.8432    2.4402   -5.1689 H       1  LIG11       0.0658
     45 H          -2.1455    3.6940   -3.2394 H       1  LIG11       0.0654
     46 H          -5.8246   -1.8915   -5.2832 H       1  LIG11       0.0622
     47 H          -7.2852   -0.5286    0.7924 H       1  LIG11       0.0623
     48 H          -6.5533   -1.8324   -7.6568 H       1  LIG11       0.0655
     49 H          -9.6817    3.5812   -0.5177 H       1  LIG11       0.0691
     50 H          -9.2186    0.1853    2.0624 H       1  LIG11       0.0654
     51 H          -2.5540    5.8583   -2.0148 H       1  LIG11       0.0696
     52 H          -1.1387    4.8226   -1.6388 H       1  LIG11       0.0696
     53 H          -6.0743    2.2668   -9.7859 H       1  LIG11       0.1166
     54 H          -7.8127    2.3428   -9.4124 H       1  LIG11       0.1166
     55 H          -7.1319    4.7157   -0.8832 H       1  LIG11       0.0720
     56 H          -8.5693    4.8314   -1.9249 H       1  LIG11       0.0720
     57 H          -0.8646    6.9981   -0.5724 H       1  LIG11       0.0295
     58 H          -1.0351    5.7231    0.6424 H       1  LIG11       0.0295
     59 H          -5.6811    4.7168   -2.9193 H       1  LIG11       0.0591
     60 H          -7.1136    4.8021   -3.9476 H       1  LIG11       0.0591
     61 H         -12.0555    2.2875    2.9908 H       1  LIG11       0.0660
     62 H         -10.4372    1.7201    3.4143 H       1  LIG11       0.0660
     63 H         -11.4998    0.7500    2.3197 H       1  LIG11       0.0660
     64 H          -3.2867    7.5999   -0.2342 H       1  LIG11       0.0231
     65 H          -2.3369    7.7336    1.2560 H       1  LIG11       0.0231
     66 H          -3.4079    6.3460    1.0175 H       1  LIG11       0.0231
@<TRIPOS>BOND
     1     1    16   ar
     2     2    16   ar
     3     3    20    1
     4     3    31    1
     5     4    19    1
     6     4    33    1
     7     5    25    1
     8     5    32    1
     9     6    29    1
    10     6    32    1
    11     7    30    1
    12     7    36    1
    13     8    35    1
    14     9    10    1
    15     9    11    1
    16     9    16    1
    17    10    12    1
    18    10    14    1
    19    11    13    1
    20    11    15    1
    21    12    13   ar
    22    12    17   ar
    23    13    18   ar
    24    14    19   ar
    25    14    24   ar
    26    15    21   ar
    27    15    23   ar
    28    17    20   ar
    29    18    22   ar
    30    19    27   ar
    31    20    22   ar
    32    21    25   ar
    33    23    26   ar
    34    24    28   ar
    35    25    29   ar
    36    26    29   ar
    37    27    30   ar
    38    28    30   ar
    39    31    34    1
    40    33    35    1
    41    34    37    1
    42     8    38    1
    43     9    39    1
    44    10    40    1
    45    11    41    1
    46    17    42    1
    47    18    43    1
    48    21    44    1
    49    22    45    1
    50    23    46    1
    51    24    47    1
    52    26    48    1
    53    27    49    1
    54    28    50    1
    55    31    51    1
    56    31    52    1
    57    32    53    1
    58    32    54    1
    59    33    55    1
    60    33    56    1
    61    34    57    1
    62    34    58    1
    63    35    59    1
    64    35    60    1
    65    36    61    1
    66    36    62    1
    67    36    63    1
    68    37    64    1
    69    37    65    1
    70    37    66    1
@<TRIPOS>MOLECULE
../1EDN/PCA3_17-21.pdb
 47 48 0 0 0
SMALL
GASTEIGER

@<TRIPOS>ATOM
      1  N         -4.2370    0.0490   -1.5930 N.3    17  LEU17      -0.1231
      2  CA        -5.5250   -0.5610   -1.9200 C.3    17  LEU17       0.1693
      3  CB        -5.7360   -1.8160   -1.1010 C.3    17  LEU17       0.0284
      4  CG        -6.9950   -2.5690   -1.5730 C.3    17  LEU17       0.0019
      5  CD1       -6.7530   -3.1800   -3.0080 C.3    17  LEU17       0.0001
      6  CD2       -7.2580   -3.7400   -0.6960 C.3    17  LEU17       0.0001
      7  C         -6.6810    0.4320   -1.9250 C.2    17  LEU17       0.2592
      8  O         -7.3270    0.6200   -2.9560 O.2    17  LEU17      -0.2718
      9  N         -6.9500    1.1080   -0.7900 N.am   18  ASP18      -0.1960
     10  CA        -8.0880    2.0070   -0.5710 C.3    18  ASP18       0.1840
     11  CB        -9.1090    1.3410    0.3760 C.3    18  ASP18       0.1450
     12  CG       -10.1470    2.2990    0.9520 C.2    18  ASP18       0.3671
     13  OD1      -11.0720    2.5310    0.1500 O.co2  18  ASP18      -0.2456
     14  OD2      -10.1960    2.6850    2.1610 O.co2  18  ASP18      -0.2456
     15  C         -7.6280    3.3500    0.0060 C.2    18  ASP18       0.2622
     16  O         -7.9950    4.4650   -0.3580 O.2    18  ASP18      -0.2715
     17  N         -6.8140    3.2050    1.0390 N.am   19  ILE19      -0.1963
     18  CA        -6.1800    4.3790    1.8160 C.3    19  ILE19       0.1727
     19  CB        -5.3140    3.8890    3.0670 C.3    19  ILE19       0.0290
     20  CG2       -4.6600    5.0630    3.8540 C.3    19  ILE19       0.0023
     21  CG1       -6.1440    2.9790    3.9890 C.3    19  ILE19       0.0022
     22  CD1       -5.5170    2.2940    5.2130 C.3    19  ILE19       0.0001
     23  C         -5.2670    5.2520    0.8640 C.2    19  ILE19       0.2616
     24  O         -5.3920    6.4650    0.9090 O.2    19  ILE19      -0.2715
     25  N         -4.4890    4.6060    0.0020 N.am   20  ILE20      -0.1963
     26  CA        -3.9690    5.2910   -1.1850 C.3    20  ILE20       0.1727
     27  CB        -2.4460    5.7340   -1.0120 C.3    20  ILE20       0.0290
     28  CG2       -2.3030    7.0110   -0.1100 C.3    20  ILE20       0.0023
     29  CG1       -1.4300    4.6170   -0.6100 C.3    20  ILE20       0.0022
     30  CD1        0.0800    4.9990   -0.7110 C.3    20  ILE20       0.0001
     31  C         -4.1660    4.3690   -2.4130 C.2    20  ILE20       0.2617
     32  O         -3.9200    3.1710   -2.5010 O.2    20  ILE20      -0.2715
     33  N         -4.6410    5.0460   -3.5090 N.am   21  TRP21      -0.1938
     34  CA        -4.8980    4.4430   -4.8120 C.3    21  TRP21       0.2021
     35  CB        -6.2680    3.7450   -4.8170 C.3    21  TRP21       0.0612
     36  CG        -6.5090    2.9660   -6.0890 C.ar   21  TRP21       0.0007
     37  CD1       -7.0550    3.4090   -7.2190 C.ar   21  TRP21       0.0946
     38  NE1       -7.1560    2.4190   -8.1260 N.ar   21  TRP21      -0.2442
     39  CE2       -6.6880    1.2600   -7.6470 C.ar   21  TRP21       0.0810
     40  CZ2       -6.5320   -0.1050   -8.0600 C.ar   21  TRP21       0.0191
     41  CH2       -5.9630   -1.0770   -7.2340 C.ar   21  TRP21       0.0015
     42  CZ3       -5.4330   -0.7150   -5.9030 C.ar   21  TRP21       0.0001
     43  CE3       -5.5290    0.6400   -5.5430 C.ar   21  TRP21       0.0012
     44  CD2       -6.2440    1.5830   -6.3190 C.ar   21  TRP21       0.0152
     45  C         -4.7460    5.5030   -5.9410 C.2    21  TRP21       0.3845
     46  O         -5.6740    6.3580   -6.0770 O.co2  21  TRP21      -0.2437
     47  OXT       -3.7150    5.4030   -6.6310 O.co2  21  TRP21      -0.2437
@<TRIPOS>BOND
     1    38    39   ar
     2    38    37   ar
     3    40    39   ar
     4    40    41   ar
     5    39    44   ar
     6    41    42   ar
     7    37    36   ar
     8    47    45   ar
     9    44    36   ar
    10    44    43   ar
    11    36    35    1
    12    46    45   ar
    13    45    34    1
    14    42    43   ar
    15    35    34    1
    16    34    33    1
    17    33    31   am
    18     5     4    1
    19     8     7    2
    20    32    31    2
    21    31    26    1
    22     7     2    1
    23     7     9   am
    24     2     1    1
    25     2     3    1
    26     4     3    1
    27     4     6    1
    28    26    27    1
    29    26    25    1
    30    27    29    1
    31    27    28    1
    32     9    10    1
    33    30    29    1
    34    10    15    1
    35    10    11    1
    36    16    15    2
    37    25    23   am
    38    15    17   am
    39    13    12   ar
    40    11    12    1
    41    23    24    2
    42    23    18    1
    43    12    14   ar
    44    17    18    1
    45    18    19    1
    46    19    20    1
    47    19    21    1
    48    21    22    1
