@<TRIPOS>MOLECULE
../1EDN/XRAY_17-21_NOBACKBONE.pdb
 26 23 0 0 0
SMALL
GASTEIGER

@<TRIPOS>ATOM
      1  CB         5.6570  -21.0170   -0.8850 C.3    17  LEU17       0.0000
      2  CG         5.4050  -22.5400   -0.8470 C.3    17  LEU17       0.0000
      3  CD1        6.1110  -23.2140    0.3150 C.3    17  LEU17       0.0000
      4  CD2        3.9240  -22.7940   -0.7690 C.3    17  LEU17       0.0000
      5  CB         3.8720  -17.2370    1.5730 C.3    18  ASP18       0.0476
      6  CG         2.4440  -17.7210    1.8880 C.2    18  ASP18       0.0507
      7  OD1        1.8320  -18.4410    1.0660 O.co2  18  ASP18      -0.5492
      8  OD2        1.9260  -17.3730    2.9700 O.co2  18  ASP18      -0.5492
      9  CB         7.9140  -14.3690   -1.8400 C.3    19  ILE19       0.0000
     10  CG1        8.8760  -14.8240   -0.7490 C.3    19  ILE19       0.0000
     11  CG2        8.2810  -12.9320   -2.2380 C.3    19  ILE19       0.0000
     12  CD1        9.3280  -13.7050    0.1860 C.3    19  ILE19       0.0000
     13  CB         5.8140  -13.8870   -5.9550 C.3    20  ILE20       0.0000
     14  CG1        5.9530  -12.3980   -5.6400 C.3    20  ILE20       0.0000
     15  CG2        5.1640  -14.0490   -7.3150 C.3    20  ILE20       0.0000
     16  CD1        6.8340  -11.6390   -6.6010 C.3    20  ILE20       0.0000
     17  CB         2.6690  -18.5180   -5.3120 C.3    21  TRP21       0.0327
     18  CG         1.5690  -17.9980   -4.3600 C.ar   21  TRP21      -0.0013
     19  CD1        0.7990  -18.7930   -3.5490 C.ar   21  TRP21       0.0946
     20  CD2        1.2480  -16.6350   -3.9890 C.ar   21  TRP21       0.0152
     21  CE2        0.3020  -16.7070   -2.9250 C.ar   21  TRP21       0.0810
     22  CE3        1.6680  -15.3700   -4.4360 C.ar   21  TRP21       0.0012
     23  NE1        0.0520  -18.0350   -2.6840 N.ar   21  TRP21      -0.2442
     24  CZ2       -0.2230  -15.5590   -2.2950 C.ar   21  TRP21       0.0191
     25  CZ3        1.1420  -14.2140   -3.8060 C.ar   21  TRP21       0.0001
     26  CH2        0.2070  -14.3240   -2.7450 C.ar   21  TRP21       0.0015
@<TRIPOS>BOND
     1    15    13    1
     2    16    14    1
     3    13    14    1
     4    17    18    1
     5    22    20   ar
     6    22    25   ar
     7    18    20   ar
     8    18    19   ar
     9    20    21   ar
    10    25    26   ar
    11    19    23   ar
    12    21    23   ar
    13    21    24   ar
    14    26    24   ar
    15    11     9    1
    16     9    10    1
    17     1     2    1
    18     2     4    1
    19     2     3    1
    20    10    12    1
    21     7     6   ar
    22     5     6    1
    23     6     8   ar
@<TRIPOS>MOLECULE
3047752
 70 74 0 0 0
SMALL
GASTEIGER

@<TRIPOS>ATOM
      1 O           3.0235  -18.6324   -5.2858 O.co2   1  LIG11      -0.5495
      2 O           1.0491  -19.3240   -4.4088 O.co2   1  LIG11      -0.5495
      3 O           2.8020  -16.2589    1.7474 O.3     1  LIG11      -0.4526
      4 O           2.7502  -18.5849    2.3919 O.3     1  LIG11      -0.4526
      5 O           6.2012  -12.8928   -6.2311 O.3     1  LIG11      -0.4951
      6 O           1.5096  -13.3955   -9.6894 O.co2   1  LIG11      -0.5495
      7 O           3.6353  -13.5822  -10.4875 O.co2   1  LIG11      -0.5495
      8 N           0.2050  -13.9253   -4.2597 N.ar    1  LIG11      -0.2556
      9 C           1.9048  -17.1852   -3.7927 C.3     1  LIG11       0.0217
     10 C           1.6082  -15.9987   -4.7603 C.3     1  LIG11       0.0357
     11 C           0.7807  -17.2267   -2.7303 C.3     1  LIG11       0.0199
     12 C           0.1599  -15.8639   -2.8347 C.ar    1  LIG11      -0.0174
     13 C           0.6209  -15.1689   -3.9394 C.ar    1  LIG11       0.0534
     14 C           2.8418  -15.1862   -5.1829 C.ar    1  LIG11      -0.0344
     15 C           1.3186  -17.5914   -1.3487 C.ar    1  LIG11      -0.0356
     16 C           1.9838  -18.4907   -4.5855 C.2     1  LIG11       0.0466
     17 C          -0.8100  -15.2947   -2.0244 C.ar    1  LIG11      -0.0546
     18 C           3.1612  -14.9072   -6.5406 C.ar    1  LIG11      -0.0395
     19 C           3.6784  -14.6583   -4.1747 C.ar    1  LIG11      -0.0542
     20 C          -0.7047  -13.3525   -3.4367 C.ar    1  LIG11       0.0416
     21 C           1.8460  -16.6327   -0.4642 C.ar    1  LIG11      -0.0124
     22 C          -1.2440  -14.0088   -2.3260 C.ar    1  LIG11      -0.0401
     23 C           1.3189  -18.9547   -0.9647 C.ar    1  LIG11      -0.0543
     24 C           2.2784  -15.4155   -7.6785 C.3     1  LIG11      -0.0196
     25 C           4.3018  -14.1217   -6.8145 C.ar    1  LIG11      -0.0165
     26 C          -1.1374  -11.9482   -3.7729 C.3     1  LIG11      -0.0104
     27 C           2.8025  -15.3289   -9.1234 C.3     1  LIG11      -0.0003
     28 C           2.2949  -17.0577    0.7687 C.ar    1  LIG11       0.1665
     29 C           4.8068  -13.8941   -4.4759 C.ar    1  LIG11      -0.0197
     30 C           1.7919  -19.3583    0.2877 C.ar    1  LIG11      -0.0159
     31 C           5.1257  -13.6231   -5.8001 C.ar    1  LIG11       0.1204
     32 C           2.2649  -18.3827    1.1359 C.ar    1  LIG11       0.1662
     33 C          -2.4432  -11.9317   -4.5691 C.3     1  LIG11      -0.0479
     34 C           2.0161  -16.2837  -10.0303 C.3     1  LIG11      -0.0570
     35 C          -2.8949  -10.5197   -4.9477 C.3     1  LIG11      -0.0556
     36 C           2.6317  -13.9643   -9.8127 C.2     1  LIG11       0.0449
     37 C           3.0945  -17.2356    2.7638 C.3     1  LIG11       0.2332
     38 C          -3.3138   -9.6784   -3.7508 C.3     1  LIG11      -0.0653
     39 C           7.0189  -12.3096   -5.2301 C.3     1  LIG11       0.0788
     40 H           2.8805  -17.0658   -3.3023 H       1  LIG11       0.0379
     41 H           1.0522  -16.3621   -5.6301 H       1  LIG11       0.0419
     42 H          -0.0297  -17.9233   -2.9786 H       1  LIG11       0.0404
     43 H          -1.2118  -15.8362   -1.1756 H       1  LIG11       0.0622
     44 H           3.4425  -14.8395   -3.1292 H       1  LIG11       0.0622
     45 H           1.9016  -15.5833   -0.7321 H       1  LIG11       0.0658
     46 H          -1.9892  -13.5247   -1.7056 H       1  LIG11       0.0636
     47 H           0.9575  -19.7047   -1.6704 H       1  LIG11       0.0622
     48 H           1.3112  -14.9046   -7.5981 H       1  LIG11       0.0319
     49 H           2.1069  -16.4808   -7.4775 H       1  LIG11       0.0319
     50 H           4.5646  -13.8769   -7.8425 H       1  LIG11       0.0657
     51 H          -0.3436  -11.4583   -4.3509 H       1  LIG11       0.0328
     52 H          -1.2363  -11.3805   -2.8405 H       1  LIG11       0.0328
     53 H           3.8554  -15.6339   -9.1602 H       1  LIG11       0.0361
     54 H           5.4054  -13.5289   -3.6527 H       1  LIG11       0.0654
     55 H           1.7923  -20.4036    0.5700 H       1  LIG11       0.0655
     56 H          -3.2399  -12.4308   -4.0038 H       1  LIG11       0.0269
     57 H          -2.3090  -12.5113   -5.4912 H       1  LIG11       0.0269
     58 H           0.9399  -16.0767  -10.0003 H       1  LIG11       0.0236
     59 H           2.1646  -17.3232   -9.7167 H       1  LIG11       0.0236
     60 H           2.3425  -16.2047  -11.0740 H       1  LIG11       0.0236
     61 H          -3.7488  -10.5992   -5.6310 H       1  LIG11       0.0263
     62 H          -2.0972  -10.0042   -5.4954 H       1  LIG11       0.0263
     63 H           2.5378  -16.9722    3.6702 H       1  LIG11       0.1166
     64 H           4.1660  -17.1967    2.9896 H       1  LIG11       0.1166
     65 H          -4.0907  -10.1835   -3.1679 H       1  LIG11       0.0230
     66 H          -3.7160   -8.7174   -4.0890 H       1  LIG11       0.0230
     67 H          -2.4678   -9.4675   -3.0904 H       1  LIG11       0.0230
     68 H           7.8145  -11.7495   -5.7317 H       1  LIG11       0.0660
     69 H           7.4960  -13.0760   -4.6096 H       1  LIG11       0.0660
     70 H           6.4512  -11.6010   -4.6171 H       1  LIG11       0.0660
@<TRIPOS>BOND
     1     1    16   ar
     2     2    16   ar
     3     3    28    1
     4     3    37    1
     5     4    32    1
     6     4    37    1
     7     5    31    1
     8     5    39    1
     9     6    36   ar
    10     7    36   ar
    11     8    13   ar
    12     8    20   ar
    13     9    10    1
    14     9    11    1
    15     9    16    1
    16    10    13    1
    17    10    14    1
    18    11    12    1
    19    11    15    1
    20    12    13   ar
    21    12    17   ar
    22    14    18   ar
    23    14    19   ar
    24    15    21   ar
    25    15    23   ar
    26    17    22   ar
    27    18    24    1
    28    18    25   ar
    29    19    29   ar
    30    20    22   ar
    31    20    26    1
    32    21    28   ar
    33    23    30   ar
    34    24    27    1
    35    25    31   ar
    36    26    33    1
    37    27    34    1
    38    27    36    1
    39    28    32   ar
    40    29    31   ar
    41    30    32   ar
    42    33    35    1
    43    35    38    1
    44     9    40    1
    45    10    41    1
    46    11    42    1
    47    17    43    1
    48    19    44    1
    49    21    45    1
    50    22    46    1
    51    23    47    1
    52    24    48    1
    53    24    49    1
    54    25    50    1
    55    26    51    1
    56    26    52    1
    57    27    53    1
    58    29    54    1
    59    30    55    1
    60    33    56    1
    61    33    57    1
    62    34    58    1
    63    34    59    1
    64    34    60    1
    65    35    61    1
    66    35    62    1
    67    37    63    1
    68    37    64    1
    69    38    65    1
    70    38    66    1
    71    38    67    1
    72    39    68    1
    73    39    69    1
    74    39    70    1
@<TRIPOS>MOLECULE
../1EDN/XRAY_17-21.pdb
 47 48 0 0 0
SMALL
GASTEIGER

@<TRIPOS>ATOM
      1  N          6.4500  -19.7300   -2.8460 N.3    17  LEU17      -0.1231
      2  CA         5.2640  -20.1680   -2.1160 C.3    17  LEU17       0.1693
      3  C          4.7010  -18.8060   -1.6720 C.2    17  LEU17       0.2592
      4  O          4.3760  -17.9800   -2.5270 O.2    17  LEU17      -0.2718
      5  CB         5.6570  -21.0170   -0.8850 C.3    17  LEU17       0.0284
      6  CG         5.4050  -22.5400   -0.8470 C.3    17  LEU17       0.0019
      7  CD1        6.1110  -23.2140    0.3150 C.3    17  LEU17       0.0001
      8  CD2        3.9240  -22.7940   -0.7690 C.3    17  LEU17       0.0001
      9  N          4.7270  -18.4910   -0.3800 N.am   18  ASP18      -0.1962
     10  CA         4.1720  -17.2010    0.0630 C.3    18  ASP18       0.1783
     11  C          4.7750  -15.8130   -0.3500 C.2    18  ASP18       0.2620
     12  O          4.1570  -14.7710   -0.0750 O.2    18  ASP18      -0.2715
     13  CB         3.8720  -17.2370    1.5730 C.3    18  ASP18       0.0728
     14  CG         2.4440  -17.7210    1.8880 C.2    18  ASP18       0.0526
     15  OD1        1.8320  -18.4410    1.0660 O.co2  18  ASP18      -0.5491
     16  OD2        1.9260  -17.3730    2.9700 O.co2  18  ASP18      -0.5491
     17  N          5.9570  -15.7420   -0.9630 N.am   19  ILE19      -0.1963
     18  CA         6.4450  -14.4030   -1.3510 C.3    19  ILE19       0.1727
     19  C          5.5760  -13.9960   -2.5290 C.2    19  ILE19       0.2616
     20  O          4.8370  -13.0080   -2.4770 O.2    19  ILE19      -0.2715
     21  CB         7.9140  -14.3690   -1.8400 C.3    19  ILE19       0.0290
     22  CG1        8.8760  -14.8240   -0.7490 C.3    19  ILE19       0.0022
     23  CG2        8.2810  -12.9320   -2.2380 C.3    19  ILE19       0.0023
     24  CD1        9.3280  -13.7050    0.1860 C.3    19  ILE19       0.0001
     25  N          5.7170  -14.7750   -3.5990 N.am   20  ILE20      -0.1963
     26  CA         4.9770  -14.6140   -4.8450 C.3    20  ILE20       0.1727
     27  C          4.7560  -16.0550   -5.2510 C.2    20  ILE20       0.2615
     28  O          5.5820  -16.9240   -4.9410 O.2    20  ILE20      -0.2715
     29  CB         5.8140  -13.8870   -5.9550 C.3    20  ILE20       0.0290
     30  CG1        5.9530  -12.3980   -5.6400 C.3    20  ILE20       0.0022
     31  CG2        5.1640  -14.0490   -7.3150 C.3    20  ILE20       0.0023
     32  CD1        6.8340  -11.6390   -6.6010 C.3    20  ILE20       0.0001
     33  N          3.6520  -16.3070   -5.9350 N.am   21  TRP21      -0.1988
     34  CA         3.3300  -17.6370   -6.4010 C.3    21  TRP21       0.1456
     35  C          2.5650  -17.6270   -7.7180 C.2    21  TRP21       0.1166
     36  O          1.8980  -18.6320   -8.0750 O.co2  21  TRP21      -0.3065
     37  CB         2.6690  -18.5180   -5.3120 C.3    21  TRP21       0.0562
     38  CG         1.5690  -17.9980   -4.3600 C.ar   21  TRP21       0.0005
     39  CD1        0.7990  -18.7930   -3.5490 C.ar   21  TRP21       0.0946
     40  CD2        1.2480  -16.6350   -3.9890 C.ar   21  TRP21       0.0152
     41  CE2        0.3020  -16.7070   -2.9250 C.ar   21  TRP21       0.0810
     42  CE3        1.6680  -15.3700   -4.4360 C.ar   21  TRP21       0.0012
     43  NE1        0.0520  -18.0350   -2.6840 N.ar   21  TRP21      -0.2442
     44  CZ2       -0.2230  -15.5590   -2.2950 C.ar   21  TRP21       0.0191
     45  CZ3        1.1420  -14.2140   -3.8060 C.ar   21  TRP21       0.0001
     46  CH2        0.2070  -14.3240   -2.7450 C.ar   21  TRP21       0.0015
     47  OXT        2.7400  -16.6140   -8.4280 O.co2  21  TRP21      -0.8460
@<TRIPOS>BOND
     1    47    35   ar
     2    36    35   ar
     3    35    34    1
     4    31    29    1
     5    32    30    1
     6    34    33    1
     7    34    37    1
     8    29    30    1
     9    29    26    1
    10    33    27   am
    11    37    38    1
    12    27    28    2
    13    27    26    1
    14    26    25    1
    15    42    40   ar
    16    42    45   ar
    17    38    40   ar
    18    38    39   ar
    19    40    41   ar
    20    45    46   ar
    21    25    19   am
    22    39    43   ar
    23    41    43   ar
    24    41    44   ar
    25     1     2    1
    26    46    44   ar
    27    19    20    2
    28    19    18    1
    29     4     3    2
    30    23    21    1
    31     2     3    1
    32     2     5    1
    33    21    18    1
    34    21    22    1
    35     3     9   am
    36    18    17    1
    37    17    11   am
    38     5     6    1
    39     6     8    1
    40     6     7    1
    41    22    24    1
    42     9    10    1
    43    11    12    2
    44    11    10    1
    45    10    13    1
    46    15    14   ar
    47    13    14    1
    48    14    16   ar
