@<TRIPOS>MOLECULE
../1EDN/XRAY_17-21_NOBACKBONE.pdb
 26 23 0 0 0
SMALL
GASTEIGER

@<TRIPOS>ATOM
      1  CB         5.6570  -21.0170   -0.8850 C.3    17  LEU17       0.0000
      2  CG         5.4050  -22.5400   -0.8470 C.3    17  LEU17       0.0000
      3  CD1        6.1110  -23.2140    0.3150 C.3    17  LEU17       0.0000
      4  CD2        3.9240  -22.7940   -0.7690 C.3    17  LEU17       0.0000
      5  CB         3.8720  -17.2370    1.5730 C.3    18  ASP18       0.0476
      6  CG         2.4440  -17.7210    1.8880 C.2    18  ASP18       0.0507
      7  OD1        1.8320  -18.4410    1.0660 O.co2  18  ASP18      -0.5492
      8  OD2        1.9260  -17.3730    2.9700 O.co2  18  ASP18      -0.5492
      9  CB         7.9140  -14.3690   -1.8400 C.3    19  ILE19       0.0000
     10  CG1        8.8760  -14.8240   -0.7490 C.3    19  ILE19       0.0000
     11  CG2        8.2810  -12.9320   -2.2380 C.3    19  ILE19       0.0000
     12  CD1        9.3280  -13.7050    0.1860 C.3    19  ILE19       0.0000
     13  CB         5.8140  -13.8870   -5.9550 C.3    20  ILE20       0.0000
     14  CG1        5.9530  -12.3980   -5.6400 C.3    20  ILE20       0.0000
     15  CG2        5.1640  -14.0490   -7.3150 C.3    20  ILE20       0.0000
     16  CD1        6.8340  -11.6390   -6.6010 C.3    20  ILE20       0.0000
     17  CB         2.6690  -18.5180   -5.3120 C.3    21  TRP21       0.0327
     18  CG         1.5690  -17.9980   -4.3600 C.ar   21  TRP21      -0.0013
     19  CD1        0.7990  -18.7930   -3.5490 C.ar   21  TRP21       0.0946
     20  CD2        1.2480  -16.6350   -3.9890 C.ar   21  TRP21       0.0152
     21  CE2        0.3020  -16.7070   -2.9250 C.ar   21  TRP21       0.0810
     22  CE3        1.6680  -15.3700   -4.4360 C.ar   21  TRP21       0.0012
     23  NE1        0.0520  -18.0350   -2.6840 N.ar   21  TRP21      -0.2442
     24  CZ2       -0.2230  -15.5590   -2.2950 C.ar   21  TRP21       0.0191
     25  CZ3        1.1420  -14.2140   -3.8060 C.ar   21  TRP21       0.0001
     26  CH2        0.2070  -14.3240   -2.7450 C.ar   21  TRP21       0.0015
@<TRIPOS>BOND
     1    15    13    1
     2    16    14    1
     3    13    14    1
     4    17    18    1
     5    22    20   ar
     6    22    25   ar
     7    18    20   ar
     8    18    19   ar
     9    20    21   ar
    10    25    26   ar
    11    19    23   ar
    12    21    23   ar
    13    21    24   ar
    14    26    24   ar
    15    11     9    1
    16     9    10    1
    17     1     2    1
    18     2     4    1
    19     2     3    1
    20    10    12    1
    21     7     6   ar
    22     5     6    1
    23     6     8   ar
@<TRIPOS>MOLECULE
01479498K
 57 61 0 0 0
SMALL
GASTEIGER

@<TRIPOS>ATOM
      1 C           0.2840  -17.6783   -2.3750 C.3     1  LIG11       0.1526
      2 C          -0.1421  -16.2954   -2.7697 C.2     1  LIG11       0.0278
      3 C           0.9583  -17.7460   -0.9969 C.ar    1  LIG11       0.0009
      4 O           1.1042  -18.3442   -3.3724 O.3     1  LIG11      -0.4789
      5 C           0.5217  -15.5369   -3.6625 C.2     1  LIG11       0.0016
      6 C          -1.4608  -15.8683   -2.1312 C.2     1  LIG11       0.0721
      7 C           2.3573  -17.7660   -0.8424 C.ar    1  LIG11      -0.0091
      8 C           0.1505  -17.7554    0.1694 C.ar    1  LIG11      -0.0511
      9 C           1.9455  -17.5313   -4.0834 C.ar    1  LIG11       0.1298
     10 C           1.7467  -16.1551   -4.2166 C.ar    1  LIG11       0.0283
     11 C           0.0042  -14.2084   -4.0508 C.ar    1  LIG11      -0.0165
     12 O          -2.4693  -16.5211   -2.5256 O.co2   1  LIG11      -0.5448
     13 O          -1.3742  -14.9873   -1.2316 O.co2   1  LIG11      -0.5448
     14 C           2.8837  -17.8074    0.4305 C.ar    1  LIG11       0.1666
     15 C           0.7123  -17.7949    1.4512 C.ar    1  LIG11      -0.0158
     16 C           3.0545  -18.1496   -4.6569 C.ar    1  LIG11      -0.0158
     17 C           2.7138  -15.3947   -4.8997 C.ar    1  LIG11      -0.0087
     18 C           0.3962  -13.0614   -3.3537 C.ar    1  LIG11      -0.0505
     19 C          -0.8610  -14.0848   -5.1439 C.ar    1  LIG11      -0.0505
     20 C           2.0853  -17.8226    1.5481 C.ar    1  LIG11       0.1662
     21 O           4.2097  -17.8329    0.7378 O.3     1  LIG11      -0.4526
     22 C           4.0071  -17.3808   -5.3223 C.ar    1  LIG11      -0.0164
     23 C           3.8541  -15.9958   -5.4357 C.ar    1  LIG11       0.1217
     24 C          -0.0629  -11.8044   -3.7539 C.ar    1  LIG11      -0.0194
     25 C          -1.3300  -12.8271   -5.5368 C.ar    1  LIG11      -0.0194
     26 O           2.8062  -17.8588    2.7016 O.3     1  LIG11      -0.4526
     27 C           4.1486  -17.8335    2.1764 C.3     1  LIG11       0.2332
     28 O           4.8759  -15.3811   -6.0999 O.3     1  LIG11      -0.4893
     29 C          -0.9396  -11.6866   -4.8328 C.ar    1  LIG11       0.1201
     30 C           4.9452  -13.9560   -6.1757 C.3     1  LIG11       0.0946
     31 O          -1.3346  -10.4118   -5.1432 O.3     1  LIG11      -0.4951
     32 C           5.1971  -13.6034   -7.6373 C.3     1  LIG11      -0.0281
     33 C           6.1009  -13.4837   -5.2999 C.3     1  LIG11      -0.0281
     34 C          -2.6815  -10.3150   -5.5950 C.3     1  LIG11       0.0788
     35 H          -0.6022  -18.3241   -2.3224 H       1  LIG11       0.0837
     36 H           3.0288  -17.7404   -1.6904 H       1  LIG11       0.0659
     37 H          -0.9348  -17.7002    0.0708 H       1  LIG11       0.0623
     38 H           0.0839  -17.7830    2.3330 H       1  LIG11       0.0655
     39 H           3.1885  -19.2218   -4.5532 H       1  LIG11       0.0655
     40 H           2.5405  -14.3305   -4.9883 H       1  LIG11       0.0661
     41 H           1.0375  -13.1531   -2.4804 H       1  LIG11       0.0625
     42 H          -1.1836  -14.9745   -5.6797 H       1  LIG11       0.0625
     43 H           4.8842  -17.8629   -5.7442 H       1  LIG11       0.0655
     44 H           0.2372  -10.9222   -3.1973 H       1  LIG11       0.0654
     45 H          -1.9941  -12.7688   -6.3912 H       1  LIG11       0.0654
     46 H           4.6847  -18.7149    2.5473 H       1  LIG11       0.1166
     47 H           4.6548  -16.9355    2.5490 H       1  LIG11       0.1166
     48 H           4.0343  -13.4420   -5.8659 H       1  LIG11       0.0727
     49 H           6.1081  -14.0853   -8.0088 H       1  LIG11       0.0265
     50 H           4.3718  -13.9677   -8.2597 H       1  LIG11       0.0265
     51 H           5.2874  -12.5221   -7.7769 H       1  LIG11       0.0265
     52 H           7.0401  -13.9670   -5.5905 H       1  LIG11       0.0265
     53 H           6.2313  -12.3989   -5.3657 H       1  LIG11       0.0265
     54 H           5.9209  -13.7484   -4.2521 H       1  LIG11       0.0265
     55 H          -2.9754   -9.2621   -5.5398 H       1  LIG11       0.0660
     56 H          -2.7652  -10.6278   -6.6405 H       1  LIG11       0.0660
     57 H          -3.3665  -10.8859   -4.9580 H       1  LIG11       0.0660
@<TRIPOS>BOND
     1     1     4    1
     2     1     2    1
     3     1     3    1
     4     2     5    2
     5     2     6    1
     6     3     8   ar
     7     3     7   ar
     8     4     9    1
     9     5    10    1
    10     5    11    1
    11     6    13   ar
    12     6    12   ar
    13     7    14   ar
    14     8    15   ar
    15     9    16   ar
    16     9    10   ar
    17    10    17   ar
    18    11    18   ar
    19    11    19   ar
    20    14    21    1
    21    14    20   ar
    22    15    20   ar
    23    16    22   ar
    24    17    23   ar
    25    18    24   ar
    26    19    25   ar
    27    20    26    1
    28    21    27    1
    29    22    23   ar
    30    23    28    1
    31    24    29   ar
    32    25    29   ar
    33    26    27    1
    34    28    30    1
    35    29    31    1
    36    30    33    1
    37    30    32    1
    38    31    34    1
    39     1    35    1
    40     7    36    1
    41     8    37    1
    42    15    38    1
    43    16    39    1
    44    17    40    1
    45    18    41    1
    46    19    42    1
    47    22    43    1
    48    24    44    1
    49    25    45    1
    50    27    46    1
    51    27    47    1
    52    30    48    1
    53    32    49    1
    54    32    50    1
    55    32    51    1
    56    33    52    1
    57    33    53    1
    58    33    54    1
    59    34    55    1
    60    34    56    1
    61    34    57    1
@<TRIPOS>MOLECULE
../1EDN/XRAY_17-21.pdb
 47 48 0 0 0
SMALL
GASTEIGER

@<TRIPOS>ATOM
      1  N          6.4500  -19.7300   -2.8460 N.3    17  LEU17      -0.1231
      2  CA         5.2640  -20.1680   -2.1160 C.3    17  LEU17       0.1693
      3  C          4.7010  -18.8060   -1.6720 C.2    17  LEU17       0.2592
      4  O          4.3760  -17.9800   -2.5270 O.2    17  LEU17      -0.2718
      5  CB         5.6570  -21.0170   -0.8850 C.3    17  LEU17       0.0284
      6  CG         5.4050  -22.5400   -0.8470 C.3    17  LEU17       0.0019
      7  CD1        6.1110  -23.2140    0.3150 C.3    17  LEU17       0.0001
      8  CD2        3.9240  -22.7940   -0.7690 C.3    17  LEU17       0.0001
      9  N          4.7270  -18.4910   -0.3800 N.am   18  ASP18      -0.1962
     10  CA         4.1720  -17.2010    0.0630 C.3    18  ASP18       0.1783
     11  C          4.7750  -15.8130   -0.3500 C.2    18  ASP18       0.2620
     12  O          4.1570  -14.7710   -0.0750 O.2    18  ASP18      -0.2715
     13  CB         3.8720  -17.2370    1.5730 C.3    18  ASP18       0.0728
     14  CG         2.4440  -17.7210    1.8880 C.2    18  ASP18       0.0526
     15  OD1        1.8320  -18.4410    1.0660 O.co2  18  ASP18      -0.5491
     16  OD2        1.9260  -17.3730    2.9700 O.co2  18  ASP18      -0.5491
     17  N          5.9570  -15.7420   -0.9630 N.am   19  ILE19      -0.1963
     18  CA         6.4450  -14.4030   -1.3510 C.3    19  ILE19       0.1727
     19  C          5.5760  -13.9960   -2.5290 C.2    19  ILE19       0.2616
     20  O          4.8370  -13.0080   -2.4770 O.2    19  ILE19      -0.2715
     21  CB         7.9140  -14.3690   -1.8400 C.3    19  ILE19       0.0290
     22  CG1        8.8760  -14.8240   -0.7490 C.3    19  ILE19       0.0022
     23  CG2        8.2810  -12.9320   -2.2380 C.3    19  ILE19       0.0023
     24  CD1        9.3280  -13.7050    0.1860 C.3    19  ILE19       0.0001
     25  N          5.7170  -14.7750   -3.5990 N.am   20  ILE20      -0.1963
     26  CA         4.9770  -14.6140   -4.8450 C.3    20  ILE20       0.1727
     27  C          4.7560  -16.0550   -5.2510 C.2    20  ILE20       0.2615
     28  O          5.5820  -16.9240   -4.9410 O.2    20  ILE20      -0.2715
     29  CB         5.8140  -13.8870   -5.9550 C.3    20  ILE20       0.0290
     30  CG1        5.9530  -12.3980   -5.6400 C.3    20  ILE20       0.0022
     31  CG2        5.1640  -14.0490   -7.3150 C.3    20  ILE20       0.0023
     32  CD1        6.8340  -11.6390   -6.6010 C.3    20  ILE20       0.0001
     33  N          3.6520  -16.3070   -5.9350 N.am   21  TRP21      -0.1988
     34  CA         3.3300  -17.6370   -6.4010 C.3    21  TRP21       0.1456
     35  C          2.5650  -17.6270   -7.7180 C.2    21  TRP21       0.1166
     36  O          1.8980  -18.6320   -8.0750 O.co2  21  TRP21      -0.3065
     37  CB         2.6690  -18.5180   -5.3120 C.3    21  TRP21       0.0562
     38  CG         1.5690  -17.9980   -4.3600 C.ar   21  TRP21       0.0005
     39  CD1        0.7990  -18.7930   -3.5490 C.ar   21  TRP21       0.0946
     40  CD2        1.2480  -16.6350   -3.9890 C.ar   21  TRP21       0.0152
     41  CE2        0.3020  -16.7070   -2.9250 C.ar   21  TRP21       0.0810
     42  CE3        1.6680  -15.3700   -4.4360 C.ar   21  TRP21       0.0012
     43  NE1        0.0520  -18.0350   -2.6840 N.ar   21  TRP21      -0.2442
     44  CZ2       -0.2230  -15.5590   -2.2950 C.ar   21  TRP21       0.0191
     45  CZ3        1.1420  -14.2140   -3.8060 C.ar   21  TRP21       0.0001
     46  CH2        0.2070  -14.3240   -2.7450 C.ar   21  TRP21       0.0015
     47  OXT        2.7400  -16.6140   -8.4280 O.co2  21  TRP21      -0.8460
@<TRIPOS>BOND
     1    47    35   ar
     2    36    35   ar
     3    35    34    1
     4    31    29    1
     5    32    30    1
     6    34    33    1
     7    34    37    1
     8    29    30    1
     9    29    26    1
    10    33    27   am
    11    37    38    1
    12    27    28    2
    13    27    26    1
    14    26    25    1
    15    42    40   ar
    16    42    45   ar
    17    38    40   ar
    18    38    39   ar
    19    40    41   ar
    20    45    46   ar
    21    25    19   am
    22    39    43   ar
    23    41    43   ar
    24    41    44   ar
    25     1     2    1
    26    46    44   ar
    27    19    20    2
    28    19    18    1
    29     4     3    2
    30    23    21    1
    31     2     3    1
    32     2     5    1
    33    21    18    1
    34    21    22    1
    35     3     9   am
    36    18    17    1
    37    17    11   am
    38     5     6    1
    39     6     8    1
    40     6     7    1
    41    22    24    1
    42     9    10    1
    43    11    12    2
    44    11    10    1
    45    10    13    1
    46    15    14   ar
    47    13    14    1
    48    14    16   ar
