@<TRIPOS>MOLECULE
BOSENTAN_50CONFORMERS.pdb
 39 42 0 0 0
SMALL
GASTEIGER

@<TRIPOS>ATOM
      1  S1        -2.5440    0.8820    1.3810 S.O2    1  LGD1        0.0943
      2  O2        -3.0580    1.0090   -0.0300 O.2     1  LGD1       -0.1483
      3  O3        -3.4510    1.0070    2.5580 O.2     1  LGD1       -0.1483
      4  O4        -2.5030   -2.6290   -0.5280 O.3     1  LGD1       -0.4427
      5  O5        -0.4920   -3.8130   -2.0760 O.3     1  LGD1       -0.4552
      6  O6        -2.0670   -1.1970   -2.9360 O.3     1  LGD1       -0.4684
      7  O7         0.0690   -6.9230   -2.9370 O.3     1  LGD1       -0.2162
      8  N8        -1.8600   -0.6450    1.4930 N.pl3   1  LGD1       -0.0737
      9  N9         0.4100   -0.5870    0.4360 N.ar    1  LGD1       -0.2027
     10  N10        0.9660   -2.0980   -1.4610 N.ar    1  LGD1       -0.1866
     11  N11        2.6500    0.7480   -1.3020 N.ar    1  LGD1       -0.2224
     12  N12        3.5170   -0.9850    0.1730 N.ar    1  LGD1       -0.2224
     13  C13        2.2420    4.4520    2.1170 C.3     1  LGD1        0.0189
     14  C14        1.0250    3.4900    1.9820 C.ar    1  LGD1       -0.0227
     15  C15        2.0010    5.4460    3.2800 C.3     1  LGD1        0.0044
     16  C16        2.6730    5.2910    0.8990 C.3     1  LGD1        0.0044
     17  C17        3.5210    3.6960    2.5530 C.3     1  LGD1        0.0044
     18  C18        0.6010    2.6040    3.0120 C.ar    1  LGD1       -0.0029
     19  C19        0.3390    3.5290    0.7610 C.ar    1  LGD1       -0.0029
     20  C20       -1.2400    1.9560    1.6370 C.ar    1  LGD1        0.1271
     21  C21       -0.4570    1.7090    2.7450 C.ar    1  LGD1        0.0199
     22  C22       -0.8450    2.7820    0.5840 C.ar    1  LGD1        0.0199
     23  C23       -0.8540   -1.1040    0.5510 C.ar    1  LGD1        0.2125
     24  C24       -1.1750   -2.2000   -0.3310 C.ar    1  LGD1        0.2327
     25  C25       -0.1850   -2.7510   -1.2360 C.ar    1  LGD1        0.2651
     26  C26        1.1720   -1.0790   -0.5680 C.ar    1  LGD1        0.2028
     27  C27       -3.4940   -1.9040   -1.1530 C.ar    1  LGD1        0.1793
     28  C28        2.5770   -0.4000   -0.6350 C.ar    1  LGD1        0.1990
     29  C29       -0.5060   -5.0230   -1.3510 C.3     1  LGD1        0.2426
     30  C30       -3.3220   -1.2950   -2.4140 C.ar    1  LGD1        0.1730
     31  C31       -4.8550   -2.2290   -0.7620 C.ar    1  LGD1        0.0406
     32  C32       -4.4180   -1.0620   -3.2580 C.ar    1  LGD1        0.0401
     33  C33       -0.9950   -6.1940   -2.2700 C.3     1  LGD1        0.2292
     34  C34       -5.9160   -1.6500   -1.4840 C.ar    1  LGD1        0.0033
     35  C35       -5.6950   -1.1630   -2.7440 C.ar    1  LGD1        0.0033
     36  C36        3.8630    1.3500   -1.3730 C.ar    1  LGD1        0.1023
     37  C37        4.7310   -0.3060    0.2120 C.ar    1  LGD1        0.1023
     38  C38        4.8960    0.8630   -0.5380 C.ar    1  LGD1        0.0414
     39  C39       -1.5870    0.1640   -3.1710 C.3     1  LGD1        0.2526
@<TRIPOS>BOND
     1    33     7    1
     2    33    29    1
     3     5    29    1
     4     5    25    1
     5    10    25   ar
     6    10    26   ar
     7    36    11   ar
     8    36    38   ar
     9    11    28   ar
    10    25    24   ar
    11    38    37   ar
    12    34    31   ar
    13    34    35   ar
    14    28    26    1
    15    28    12   ar
    16    26     9   ar
    17    31    27   ar
    18    37    12   ar
    19    24     4    1
    20    24    23   ar
    21     4    27    1
    22    27    30   ar
    23    35    32   ar
    24    15    13    1
    25     9    23   ar
    26    23     8    1
    27    30    32   ar
    28    30     6    1
    29     6    39    1
    30     8     1    1
    31    18    14   ar
    32    18    21   ar
    33    13    14    1
    34    13    17    1
    35    13    16    1
    36    14    19   ar
    37    21    20   ar
    38    20     1    1
    39    20    22   ar
    40    19    22   ar
    41     1     2    2
    42     1     3    2
@<TRIPOS>MOLECULE
01178588C
 32 34 0 0 0
SMALL
GASTEIGER

@<TRIPOS>ATOM
      1 S          -3.0652   -0.3974    0.9045 S.O2    1  LIG11       0.0756
      2 C          -1.4739   -1.0937    0.5884 C.ar    1  LIG11       0.1344
      3 N          -3.4045    0.5517   -0.4548 N.pl3   1  LIG11      -0.1951
      4 O          -2.9701    0.4977    2.0329 O.2     1  LIG11      -0.1499
      5 O          -4.0125   -1.4974    0.9548 O.2     1  LIG11      -0.1499
      6 C          -0.2788   -0.4241    0.8276 C.ar    1  LIG11       0.0975
      7 C          -1.4273   -2.4371    0.1724 C.ar    1  LIG11      -0.0315
      8 C          -3.9896   -0.1507   -1.5383 C.ar    1  LIG11       0.2006
      9 C          -0.1106    0.9470    1.3326 C.ar    1  LIG11       0.0023
     10 N           0.9227   -1.0490    0.6245 N.ar    1  LIG11      -0.2530
     11 C          -0.2058   -3.0624   -0.0359 C.ar    1  LIG11      -0.0417
     12 C          -3.2654   -0.9160   -2.4618 C.ar    1  LIG11       0.2574
     13 N          -5.3373   -0.1223   -1.5188 N.ar    1  LIG11      -0.2325
     14 C           0.5534    1.1588    2.5549 C.ar    1  LIG11      -0.0523
     15 C          -0.5161    2.0756    0.6059 C.ar    1  LIG11      -0.0523
     16 C           0.9360   -2.3287    0.1993 C.ar    1  LIG11       0.0284
     17 N          -3.8762   -1.7196   -3.3685 N.ar    1  LIG11      -0.2137
     18 O          -1.8900   -0.8184   -2.4609 O.3     1  LIG11      -0.4773
     19 C          -5.9374   -0.9352   -2.4219 C.ar    1  LIG11       0.0510
     20 C           0.7885    2.4466    3.0443 C.ar    1  LIG11      -0.0579
     21 C          -0.2868    3.3675    1.0986 C.ar    1  LIG11      -0.0579
     22 C          -5.2315   -1.7315   -3.3227 C.ar    1  LIG11       0.0602
     23 C          -1.2652   -1.5636   -3.4991 C.3     1  LIG11       0.0805
     24 C           0.3720    3.5656    2.3193 C.ar    1  LIG11      -0.0465
     25 C          -5.9536   -2.6509   -4.2575 C.3     1  LIG11      -0.0208
     26 C           0.6351    4.9654    2.8422 C.3     1  LIG11      -0.0174
     27 C           1.9899    5.5950    2.4441 C.3     1  LIG11       0.0085
     28 C           1.8747    7.0228    3.0518 C.2     1  LIG11       0.0477
     29 C           3.1876    4.8515    3.0473 C.3     1  LIG11      -0.0544
     30 C           2.1719    5.7053    0.9261 C.3     1  LIG11      -0.0544
     31 O           1.2562    7.8725    2.3467 O.co2   1  LIG11      -0.5493
     32 O           2.3832    7.1794    4.1991 O.co2   1  LIG11      -0.5493
@<TRIPOS>BOND
     1     1     5    2
     2     1     4    2
     3     1     3    1
     4     1     2    1
     5     2     6   ar
     6     2     7   ar
     7     3     8    1
     8     6    10   ar
     9     6     9    1
    10     7    11   ar
    11     8    12   ar
    12     8    13   ar
    13     9    14   ar
    14     9    15   ar
    15    10    16   ar
    16    11    16   ar
    17    12    17   ar
    18    12    18    1
    19    13    19   ar
    20    14    20   ar
    21    15    21   ar
    22    17    22   ar
    23    18    23    1
    24    19    22   ar
    25    20    24   ar
    26    21    24   ar
    27    22    25    1
    28    24    26    1
    29    26    27    1
    30    27    30    1
    31    27    29    1
    32    27    28    1
    33    28    32   ar
    34    28    31   ar
