@<TRIPOS>MOLECULE
BOSENTAN_50CONFORMERS.pdb
 39 42 0 0 0
SMALL
GASTEIGER

@<TRIPOS>ATOM
      1  S1        -1.4540    0.1350    2.8770 S.O2    1  LGD1        0.0943
      2  O2        -0.4470   -0.7320    3.5100 O.2     1  LGD1       -0.1483
      3  O3        -1.1360    1.5320    2.4670 O.2     1  LGD1       -0.1483
      4  O4        -2.4110   -2.7360   -0.2730 O.3     1  LGD1       -0.4427
      5  O5        -0.5950   -3.8040   -2.0130 O.3     1  LGD1       -0.4552
      6  O6        -4.9930   -2.6790    0.8890 O.3     1  LGD1       -0.4684
      7  O7        -0.8270   -6.9230   -2.0170 O.3     1  LGD1       -0.2162
      8  N8        -1.8590   -0.6640    1.3890 N.pl3   1  LGD1       -0.0737
      9  N9         0.4300   -0.6670    0.4910 N.ar    1  LGD1       -0.2027
     10  N10        0.9940   -2.0320   -1.4390 N.ar    1  LGD1       -0.1866
     11  N11        2.7460    0.3150   -1.9570 N.ar    1  LGD1       -0.2224
     12  N12        3.2800   -0.2760    0.3910 N.ar    1  LGD1       -0.2224
     13  C13       -6.6430    0.0540    6.2240 C.3     1  LGD1        0.0189
     14  C14       -5.3760    0.0310    5.4090 C.ar    1  LGD1       -0.0227
     15  C15       -7.0060   -1.3190    6.8340 C.3     1  LGD1        0.0044
     16  C16       -7.8140    0.5500    5.3550 C.3     1  LGD1        0.0044
     17  C17       -6.5440    1.0780    7.3190 C.3     1  LGD1        0.0044
     18  C18       -4.9740    1.1330    4.6920 C.ar    1  LGD1       -0.0029
     19  C19       -4.5800   -1.1010    5.2480 C.ar    1  LGD1       -0.0029
     20  C20       -3.0040    0.0570    3.8580 C.ar    1  LGD1        0.1271
     21  C21       -3.7460    1.2330    4.0600 C.ar    1  LGD1        0.0199
     22  C22       -3.4560   -1.1520    4.3510 C.ar    1  LGD1        0.0199
     23  C23       -0.8670   -1.1600    0.5400 C.ar    1  LGD1        0.2125
     24  C24       -1.1210   -2.1950   -0.3360 C.ar    1  LGD1        0.2327
     25  C25       -0.1810   -2.7470   -1.2100 C.ar    1  LGD1        0.2651
     26  C26        1.1810   -1.0080   -0.6150 C.ar    1  LGD1        0.2028
     27  C27       -3.4650   -2.3120   -1.0420 C.ar    1  LGD1        0.1793
     28  C28        2.5460   -0.3110   -0.7600 C.ar    1  LGD1        0.1990
     29  C29        0.3230   -4.8710   -2.0790 C.3     1  LGD1        0.2426
     30  C30       -4.7730   -2.3660   -0.4830 C.ar    1  LGD1        0.1730
     31  C31       -3.2360   -1.6370   -2.2440 C.ar    1  LGD1        0.0406
     32  C32       -5.8020   -1.8680   -1.3660 C.ar    1  LGD1        0.0401
     33  C33       -0.0890   -6.1170   -2.8760 C.3     1  LGD1        0.2292
     34  C34       -4.2080   -1.0020   -3.0290 C.ar    1  LGD1        0.0033
     35  C35       -5.4860   -1.2960   -2.6440 C.ar    1  LGD1        0.0033
     36  C36        3.9100    1.0220   -2.0730 C.ar    1  LGD1        0.1023
     37  C37        4.5070    0.3110    0.2100 C.ar    1  LGD1        0.1023
     38  C38        4.7710    0.9960   -0.9790 C.ar    1  LGD1        0.0414
     39  C39       -5.6270   -1.6200    1.6780 C.3     1  LGD1        0.2526
@<TRIPOS>BOND
     1    33     7    1
     2    33    29    1
     3     5    29    1
     4     5    25    1
     5    10    25   ar
     6    10    26   ar
     7    36    11   ar
     8    36    38   ar
     9    11    28   ar
    10    25    24   ar
    11    38    37   ar
    12    34    31   ar
    13    34    35   ar
    14    28    26    1
    15    28    12   ar
    16    26     9   ar
    17    31    27   ar
    18    37    12   ar
    19    24     4    1
    20    24    23   ar
    21     4    27    1
    22    27    30   ar
    23    35    32   ar
    24    15    13    1
    25     9    23   ar
    26    23     8    1
    27    30    32   ar
    28    30     6    1
    29     6    39    1
    30     8     1    1
    31    18    14   ar
    32    18    21   ar
    33    13    14    1
    34    13    17    1
    35    13    16    1
    36    14    19   ar
    37    21    20   ar
    38    20     1    1
    39    20    22   ar
    40    19    22   ar
    41     1     2    2
    42     1     3    2
@<TRIPOS>MOLECULE
23693553
 46 48 0 0 0
SMALL
GASTEIGER

@<TRIPOS>ATOM
      1 O          -9.9734   -2.2987    6.5524 O.2     1  LIG11      -0.2526
      2 O          -9.4828    1.9374    4.2218 O.2     1  LIG11      -0.2731
      3 O          -7.6692   -1.1771    2.9075 O.2     1  LIG11      -0.2689
      4 O          -7.9055    4.0938    1.1863 O.co2   1  LIG11      -0.5479
      5 OXT        -8.9436    2.0796    1.1649 O.co2   1  LIG11      -0.5479
      6 O          -7.6746   -1.4759   -4.6503 O.3     1  LIG11      -0.4515
      7 O          -5.4950   -1.6170   -5.4169 O.2     1  LIG11      -0.2227
      8 N         -10.4839   -3.3347    4.5441 N.am    1  LIG11      -0.2801
      9 N          -9.4930   -1.2215    4.6130 N.am    1  LIG11      -0.2879
     10 N          -7.5543    1.0855    3.3050 N.am    1  LIG11      -0.2273
     11 N          -7.2296    0.9380    0.0625 N.3     1  LIG11       0.2276
     12 N          -5.9699   -1.6285   -3.1563 N.ar    1  LIG11      -0.2526
     13 C         -10.8219   -3.1938    3.1073 C.3     1  LIG11       0.0249
     14 C         -10.6570   -4.6261    5.2434 C.3     1  LIG11       0.0249
     15 C         -11.1077   -4.5115    2.3793 C.3     1  LIG11      -0.0344
     16 C         -10.6761   -5.8830    4.3509 C.3     1  LIG11      -0.0344
     17 C         -10.2360   -5.6240    2.9237 C.3     1  LIG11      -0.0497
     18 CA         -8.7650   -0.1198    5.2571 C.3     1  LIG11       0.1019
     19 C          -6.8767    0.2358    7.1120 C.3     1  LIG11      -0.0356
     20 C          -7.4597   -0.6058    5.9367 C.3     1  LIG11      -0.0210
     21 C         -10.0037   -2.2741    5.3248 C.2     1  LIG11       0.3033
     22 C         -11.9905   -2.2281    2.8850 C.3     1  LIG11      -0.0464
     23 C         -11.8783   -4.6365    6.1705 C.3     1  LIG11      -0.0464
     24 C          -8.6030    1.0687    4.2460 C.2     1  LIG11       0.2429
     25 C          -6.0682    1.4188    6.5785 C.3     1  LIG11      -0.0600
     26 C          -7.9548    0.7699    8.0686 C.3     1  LIG11      -0.0600
     27 C          -5.9168   -0.6645    7.9173 C.3     1  LIG11      -0.0600
     28 CA         -7.2211    2.4417    2.7633 C.3     1  LIG11       0.0730
     29 C          -6.6603    3.4966    3.7393 C.3     1  LIG11      -0.0286
     30 C          -7.3862   -0.0444    2.4889 C.2     1  LIG11       0.2708
     31 CA         -6.6750   -0.0081    1.0841 C.3     1  LIG11       0.0579
     32 C          -7.6492    4.2984    4.5887 C.3     1  LIG11      -0.0513
     33 C          -6.7518   -1.4411    0.4750 C.3     1  LIG11       0.0261
     34 C          -8.2221    2.9902    1.7012 C.2     1  LIG11       0.0626
     35 C          -6.1575   -1.5540   -0.8966 C.ar    1  LIG11      -0.0158
     36 C          -6.9628    5.2335    5.5937 C.3     1  LIG11      -0.0558
     37 C          -4.7766   -1.6084   -1.2288 C.ar    1  LIG11       0.0038
     38 C          -6.8555   -1.6125   -2.0841 C.ar    1  LIG11       0.0202
     39 C          -4.6760   -1.6420   -2.6254 C.ar    1  LIG11       0.0598
     40 C          -6.0464    6.2686    4.9633 C.3     1  LIG11      -0.0653
     41 C          -3.5982   -1.6199   -0.4525 C.ar    1  LIG11      -0.0523
     42 C          -3.4201   -1.6691   -3.2597 C.ar    1  LIG11      -0.0371
     43 C          -2.3531   -1.6508   -1.0831 C.ar    1  LIG11      -0.0611
     44 C          -6.3248   -1.5937   -4.5249 C.2     1  LIG11       0.4196
     45 C          -2.2680   -1.6707   -2.4689 C.ar    1  LIG11      -0.0598
     46 C          -8.1146   -1.3337   -6.0017 C.3     1  LIG11       0.0835
@<TRIPOS>BOND
     1     1    21    2
     2     2    24    2
     3     3    30    2
     4     4    34   ar
     5     5    34   ar
     6     6    44    1
     7     6    46    1
     8     7    44    2
     9     8    13    1
    10     8    14    1
    11     9    21   am
    12    10    24   am
    13    10    30   am
    14    12    39   ar
    15    12    38   ar
    16    12    44   am
    17    13    15    1
    18    13    22    1
    19    14    16    1
    20    14    23    1
    21    15    17    1
    22    16    17    1
    23    18     9    1
    24    18    24    1
    25    18    20    1
    26    19    20    1
    27    19    27    1
    28    19    26    1
    29    19    25    1
    30    21     8   am
    31    28    34    1
    32    28    29    1
    33    28    10    1
    34    29    32    1
    35    31    33    1
    36    31    11    1
    37    31    30    1
    38    32    36    1
    39    33    35    1
    40    35    38   ar
    41    35    37   ar
    42    36    40    1
    43    37    39   ar
    44    37    41   ar
    45    39    42   ar
    46    41    43   ar
    47    42    45   ar
    48    43    45   ar
