@<TRIPOS>MOLECULE
BOSENTAN_50CONFORMERS.pdb
 39 42 0 0 0
SMALL
GASTEIGER

@<TRIPOS>ATOM
      1  S1        -2.2100    0.8910    1.6560 S.O2    1  LGD1        0.0943
      2  O2        -3.6490    0.8670    2.0450 O.2     1  LGD1       -0.1483
      3  O3        -1.2600    1.5580    2.5080 O.2     1  LGD1       -0.1483
      4  O4        -2.3850   -2.9130   -0.0870 O.3     1  LGD1       -0.4427
      5  O5        -0.5280   -3.6880   -2.1330 O.3     1  LGD1       -0.4552
      6  O6        -2.6800   -1.2320   -2.4200 O.3     1  LGD1       -0.4684
      7  O7         0.5730   -5.7640   -3.9500 O.3     1  LGD1       -0.2162
      8  N8        -1.7610   -0.7060    1.4300 N.pl3   1  LGD1       -0.0737
      9  N9         0.3420   -0.5020    0.3260 N.ar    1  LGD1       -0.2027
     10  N10        0.9800   -2.1490   -1.2950 N.ar    1  LGD1       -0.1866
     11  N11        2.7090    0.3860   -1.7460 N.ar    1  LGD1       -0.2224
     12  N12        3.3510   -0.5520    0.3280 N.ar    1  LGD1       -0.2224
     13  C13       -1.3880    3.3940   -3.9040 C.3     1  LGD1        0.0189
     14  C14       -1.6690    2.8260   -2.4750 C.ar    1  LGD1       -0.0227
     15  C15       -2.3300    2.9240   -5.0310 C.3     1  LGD1        0.0044
     16  C16        0.0230    3.1680   -4.4080 C.3     1  LGD1        0.0044
     17  C17       -1.6750    4.9520   -3.8190 C.3     1  LGD1        0.0044
     18  C18       -0.6570    2.7740   -1.5080 C.ar    1  LGD1       -0.0029
     19  C19       -2.8800    2.1980   -2.1100 C.ar    1  LGD1       -0.0029
     20  C20       -2.0200    1.6530    0.0630 C.ar    1  LGD1        0.1271
     21  C21       -0.8150    2.2360   -0.2570 C.ar    1  LGD1        0.0199
     22  C22       -3.0480    1.5460   -0.8880 C.ar    1  LGD1        0.0199
     23  C23       -0.8250   -1.1310    0.5010 C.ar    1  LGD1        0.2125
     24  C24       -1.1650   -2.2800   -0.2740 C.ar    1  LGD1        0.2327
     25  C25       -0.2430   -2.7600   -1.1940 C.ar    1  LGD1        0.2651
     26  C26        1.1830   -1.0600   -0.5540 C.ar    1  LGD1        0.2028
     27  C27       -3.1620   -3.2130   -1.1610 C.ar    1  LGD1        0.1793
     28  C28        2.4780   -0.2990   -0.6400 C.ar    1  LGD1        0.1990
     29  C29       -0.3750   -5.1270   -1.7850 C.3     1  LGD1        0.2426
     30  C30       -3.2680   -2.4770   -2.3200 C.ar    1  LGD1        0.1730
     31  C31       -3.9780   -4.3280   -1.0640 C.ar    1  LGD1        0.0406
     32  C32       -4.1070   -2.8440   -3.3820 C.ar    1  LGD1        0.0401
     33  C33       -0.4930   -6.0060   -3.0100 C.3     1  LGD1        0.2292
     34  C34       -4.7580   -4.7850   -2.1190 C.ar    1  LGD1        0.0033
     35  C35       -4.8170   -4.0590   -3.2820 C.ar    1  LGD1        0.0033
     36  C36        3.9930    0.9670   -1.8590 C.ar    1  LGD1        0.1023
     37  C37        4.6300   -0.0210    0.2350 C.ar    1  LGD1        0.1023
     38  C38        4.8980    0.7820   -0.8340 C.ar    1  LGD1        0.0414
     39  C39       -1.8120   -0.9830   -3.6390 C.3     1  LGD1        0.2526
@<TRIPOS>BOND
     1    33     7    1
     2    33    29    1
     3     5    29    1
     4     5    25    1
     5    10    25   ar
     6    10    26   ar
     7    36    11   ar
     8    36    38   ar
     9    11    28   ar
    10    25    24   ar
    11    38    37   ar
    12    34    31   ar
    13    34    35   ar
    14    28    26    1
    15    28    12   ar
    16    26     9   ar
    17    31    27   ar
    18    37    12   ar
    19    24     4    1
    20    24    23   ar
    21     4    27    1
    22    27    30   ar
    23    35    32   ar
    24    15    13    1
    25     9    23   ar
    26    23     8    1
    27    30    32   ar
    28    30     6    1
    29     6    39    1
    30     8     1    1
    31    18    14   ar
    32    18    21   ar
    33    13    14    1
    34    13    17    1
    35    13    16    1
    36    14    19   ar
    37    21    20   ar
    38    20     1    1
    39    20    22   ar
    40    19    22   ar
    41     1     2    2
    42     1     3    2
@<TRIPOS>MOLECULE
123882
 66 71 0 0 0
SMALL
GASTEIGER

@<TRIPOS>ATOM
      1 S          -3.1845    2.0396   -1.4669 S.2     3  UNK33      -0.0993
      2 O           5.4678    1.5071   -7.5113 O.2     1  UNK11      -0.2755
      3 O          -4.8210   -1.1733   -7.9780 O.2     4  LEU44      -0.2738
      4 O           2.0332    0.5123   -5.8421 O.2     1  UNK11      -0.2737
      5 O          -0.8303   -0.6886   -7.2626 O.2     5  TRP55      -0.2738
      6 O           2.3421   -2.2771   -8.3578 O.2     6  ASP66      -0.2738
      7 O          -4.2085    1.2530   -4.1058 O.2     3  UNK33      -0.2734
      8 O          -1.1158    3.4210   -6.5175 O.2     2  ASP22      -0.2737
      9 OD1        -1.6501   -3.5347  -10.8773 O.co2   6  ASP66      -0.5497
     10 OD2        -0.7542   -2.4295  -12.6716 O.co2   6  ASP66      -0.5497
     11 OD1         3.3062    4.5179   -7.3913 O.co2   2  ASP22      -0.5497
     12 OD2         3.5243    5.5823   -5.3748 O.co2   2  ASP22      -0.5497
     13 N           5.5050    3.1040   -9.1667 N.am    1  UNK11      -0.2984
     14 N           6.1630    5.8846  -10.0137 N.pl3   1  UNK11      -0.3269
     15 N           1.7926   -0.1020   -8.8707 N.am    1  UNK11      -0.3020
     16 N          -3.1939   -1.2644   -6.3715 N.am    5  TRP55      -0.3022
     17 N          -3.0644    1.3839   -6.0485 N.am    4  LEU44      -0.3022
     18 N          -0.6521   -2.5571   -8.5747 N.am    6  ASP66      -0.3021
     19 N           1.7430    2.4301   -7.0364 N.am    2  ASP22      -0.3021
     20 N          -0.6891    2.2122   -4.6534 N.am    3  UNK33      -0.2984
     21 NE1        -5.1794   -5.0777   -4.6877 N.ar    5  TRP55      -0.3604
     22 C           4.9095    3.7391  -10.3475 C.3     1  UNK11       0.0304
     23 C           6.5590    3.8806   -8.5033 C.3     1  UNK11       0.0304
     24 C           5.8248    4.8082  -10.9701 C.3     1  UNK11       0.0280
     25 C           6.3292    5.4063   -8.5983 C.3     1  UNK11       0.0280
     26 C           4.9297    2.0323   -8.4870 C.2     1  UNK11       0.2179
     27 C           3.6470    1.4684   -9.0777 C.3     1  UNK11       0.0510
     28 C           2.9062    0.5161   -8.1341 C.3     1  UNK11       0.1076
     29 CA         -4.1837    0.9251   -6.8931 C.3     4  LEU44       0.0997
     30 CB         -4.1643    1.7466   -8.1972 C.3     4  LEU44      -0.0236
     31 CA         -2.4925   -2.4259   -6.9204 C.3     5  TRP55       0.1034
     32 C           5.4082    7.0778  -10.0483 C.ar    1  UNK11       0.0298
     33 CG         -5.3553    1.5799   -9.1628 C.3     4  LEU44      -0.0446
     34 CB         -2.0849   -3.4224   -5.8293 C.3     5  TRP55       0.0013
     35 C          -4.1027   -0.5962   -7.1652 C.2     4  LEU44       0.2340
     36 CA          0.2258   -1.8690   -9.5248 C.3     6  ASP66       0.1045
     37 C           2.2560    1.1552   -6.8718 C.2     1  UNK11       0.2344
     38 CG         -3.2660   -4.0060   -5.0969 C.ar    5  TRP55      -0.0201
     39 C          -1.2496   -1.8037   -7.5914 C.2     5  TRP55       0.2343
     40 C           1.5594   -1.4670   -8.8452 C.2     6  ASP66       0.2343
     41 CA          1.2385    3.1616   -5.8771 C.3     2  ASP22       0.1045
     42 CD2        -6.7075    1.7940   -8.4851 C.3     4  LEU44      -0.0626
     43 CD1        -5.2037    2.5555  -10.3354 C.3     4  LEU44      -0.0626
     44 C          -2.0090    2.4078   -4.0463 C.3     3  UNK33       0.1311
     45 C           4.1484    7.1896  -10.6553 C.ar    1  UNK11      -0.0407
     46 C           5.9133    8.2271   -9.4147 C.ar    1  UNK11      -0.0407
     47 CD2        -3.6182   -3.8214   -3.7168 C.ar    5  TRP55       0.0029
     48 C          -3.1694    1.5695   -4.6833 C.2     3  UNK33       0.2390
     49 CB          0.5517   -2.7336  -10.7361 C.3     6  ASP66       0.0138
     50 CD1        -4.2486   -4.8063   -5.6507 C.ar    5  TRP55       0.0060
     51 CE2        -4.8157   -4.5031   -3.4925 C.ar    5  TRP55       0.0467
     52 C          -0.2846    2.9509   -5.7390 C.2     2  ASP22       0.2345
     53 CB          1.4432    4.6734   -5.9984 C.3     2  ASP22       0.0138
     54 C           3.4185    8.3843  -10.6162 C.ar    1  UNK11      -0.0600
     55 C           5.1900    9.4243   -9.3722 C.ar    1  UNK11      -0.0600
     56 C          -1.8518    2.2949   -2.5280 C.ar    3  UNK33       0.0189
     57 CE3        -3.0397   -3.1201   -2.6375 C.ar    5  TRP55      -0.0523
     58 C           3.9383    9.5018   -9.9724 C.ar    1  UNK11      -0.0616
     59 CZ2        -5.4611   -4.5209   -2.2491 C.ar    5  TRP55      -0.0378
     60 CG         -0.7421   -2.9148  -11.5084 C.2     6  ASP66       0.0440
     61 CZ3        -3.6694   -3.1297   -1.3867 C.ar    5  TRP55      -0.0611
     62 C          -0.7016    2.5247   -1.7793 C.ar    3  UNK33      -0.0493
     63 CH2        -4.8634   -3.8212   -1.1971 C.ar    5  TRP55      -0.0598
     64 CG          2.9029    4.9554   -6.2716 C.2     2  ASP22       0.0440
     65 C          -0.9092    2.4299   -0.3727 C.ar    3  UNK33      -0.0544
     66 C          -2.2189    2.1507   -0.0690 C.ar    3  UNK33      -0.0240
@<TRIPOS>BOND
     1     1    56   ar
     2     1    66   ar
     3     2    26    2
     4     3    35    2
     5     4    37    2
     6     5    39    2
     7     6    40    2
     8     7    48    2
     9     8    52    2
    10     9    60   ar
    11    10    60   ar
    12    11    64   ar
    13    12    64   ar
    14    13    22    1
    15    13    23    1
    16    14    24    1
    17    14    25    1
    18    14    32    1
    19    15    28    1
    20    15    40   am
    21    16    35   am
    22    16    31    1
    23    17    48   am
    24    17    29    1
    25    18    39   am
    26    18    36    1
    27    19    37   am
    28    19    41    1
    29    20    52   am
    30    20    44    1
    31    21    50   ar
    32    21    51   ar
    33    22    24    1
    34    23    25    1
    35    26    27    1
    36    26    13   am
    37    28    37    1
    38    28    27    1
    39    29    35    1
    40    29    30    1
    41    30    33    1
    42    31    39    1
    43    31    34    1
    44    32    45   ar
    45    32    46   ar
    46    33    43    1
    47    33    42    1
    48    34    38    1
    49    36    40    1
    50    36    49    1
    51    38    47   ar
    52    38    50   ar
    53    41    52    1
    54    41    53    1
    55    44    48    1
    56    44    56    1
    57    45    54   ar
    58    46    55   ar
    59    47    57   ar
    60    47    51   ar
    61    49    60    1
    62    51    59   ar
    63    53    64    1
    64    54    58   ar
    65    55    58   ar
    66    56    62   ar
    67    57    61   ar
    68    59    63   ar
    69    61    63   ar
    70    62    65   ar
    71    65    66   ar
