@<TRIPOS>MOLECULE
BOSENTAN_50CONFORMERS.pdb
 39 42 0 0 0
SMALL
GASTEIGER

@<TRIPOS>ATOM
      1  S1        -1.5100   -0.9880    3.0370 S.O2    1  LGD1        0.0943
      2  O2        -0.2560   -1.8180    3.1550 O.2     1  LGD1       -0.1483
      3  O3        -1.5910    0.3650    3.6920 O.2     1  LGD1       -0.1483
      4  O4        -2.2690   -3.0770    0.0830 O.3     1  LGD1       -0.4427
      5  O5        -0.5480   -3.7990   -2.1480 O.3     1  LGD1       -0.4552
      6  O6        -4.1690   -4.3760    1.6800 O.3     1  LGD1       -0.4684
      7  O7        -1.0180   -5.1040   -4.8690 O.3     1  LGD1       -0.2162
      8  N8        -1.7640   -0.6460    1.4110 N.pl3   1  LGD1       -0.0737
      9  N9         0.3460   -0.5210    0.3760 N.ar    1  LGD1       -0.2027
     10  N10        0.9530   -2.0860   -1.3390 N.ar    1  LGD1       -0.1866
     11  N11        2.4420    1.1050   -0.7090 N.ar    1  LGD1       -0.2224
     12  N12        3.6610   -0.9450   -0.6160 N.ar    1  LGD1       -0.2224
     13  C13       -6.1710   -4.1340    5.6560 C.3     1  LGD1        0.0189
     14  C14       -4.9560   -3.4130    4.9570 C.ar    1  LGD1       -0.0227
     15  C15       -6.2850   -3.6090    7.0600 C.3     1  LGD1        0.0044
     16  C16       -5.8910   -5.6590    5.7710 C.3     1  LGD1        0.0044
     17  C17       -7.5560   -4.0550    4.8540 C.3     1  LGD1        0.0044
     18  C18       -5.2310   -2.2320    4.2200 C.ar    1  LGD1       -0.0029
     19  C19       -3.6780   -3.9110    4.9570 C.ar    1  LGD1       -0.0029
     20  C20       -2.9130   -2.0400    3.5880 C.ar    1  LGD1        0.1271
     21  C21       -4.2130   -1.5600    3.5360 C.ar    1  LGD1        0.0199
     22  C22       -2.6320   -3.1780    4.3600 C.ar    1  LGD1        0.0199
     23  C23       -0.8410   -1.1480    0.5000 C.ar    1  LGD1        0.2125
     24  C24       -1.1400   -2.3150   -0.2320 C.ar    1  LGD1        0.2327
     25  C25       -0.2520   -2.7170   -1.2580 C.ar    1  LGD1        0.2651
     26  C26        1.2270   -1.0450   -0.5030 C.ar    1  LGD1        0.2028
     27  C27       -3.5400   -2.5540    0.1290 C.ar    1  LGD1        0.1793
     28  C28        2.5200   -0.2240   -0.5960 C.ar    1  LGD1        0.1990
     29  C29        0.4400   -4.1750   -3.1220 C.3     1  LGD1        0.2426
     30  C30       -4.5150   -3.2670    0.9050 C.ar    1  LGD1        0.1730
     31  C31       -3.9450   -1.4460   -0.6310 C.ar    1  LGD1        0.0406
     32  C32       -5.8070   -2.8390    0.9550 C.ar    1  LGD1        0.0401
     33  C33       -0.0450   -5.4500   -3.7930 C.3     1  LGD1        0.2292
     34  C34       -5.2940   -1.1580   -0.6230 C.ar    1  LGD1        0.0033
     35  C35       -6.2230   -1.7500    0.1870 C.ar    1  LGD1        0.0033
     36  C36        3.5700    1.8230   -0.7500 C.ar    1  LGD1        0.1023
     37  C37        4.8260   -0.2810   -0.6300 C.ar    1  LGD1        0.1023
     38  C38        4.7640    1.1000   -0.6600 C.ar    1  LGD1        0.0414
     39  C39       -4.7020   -5.5430    1.0290 C.3     1  LGD1        0.2526
@<TRIPOS>BOND
     1    33     7    1
     2    33    29    1
     3     5    29    1
     4     5    25    1
     5    10    25   ar
     6    10    26   ar
     7    36    11   ar
     8    36    38   ar
     9    11    28   ar
    10    25    24   ar
    11    38    37   ar
    12    34    31   ar
    13    34    35   ar
    14    28    26    1
    15    28    12   ar
    16    26     9   ar
    17    31    27   ar
    18    37    12   ar
    19    24     4    1
    20    24    23   ar
    21     4    27    1
    22    27    30   ar
    23    35    32   ar
    24    15    13    1
    25     9    23   ar
    26    23     8    1
    27    30    32   ar
    28    30     6    1
    29     6    39    1
    30     8     1    1
    31    18    14   ar
    32    18    21   ar
    33    13    14    1
    34    13    17    1
    35    13    16    1
    36    14    19   ar
    37    21    20   ar
    38    20     1    1
    39    20    22   ar
    40    19    22   ar
    41     1     2    2
    42     1     3    2
@<TRIPOS>MOLECULE
6433095
 41 45 0 0 0
SMALL
GASTEIGER

@<TRIPOS>ATOM
      1 S          -1.0231   -2.1331    2.9350 S.O2    1  LIG11       0.0908
      2 O          -2.2478   -3.2592   -0.1483 O.3     1  LIG11      -0.4435
      3 O          -0.7330   -3.8489   -2.2953 O.3     1  LIG11      -0.4715
      4 O          -0.7743   -3.4781    2.4534 O.2     1  LIG11      -0.1484
      5 O          -0.1269   -1.4955    3.8762 O.2     1  LIG11      -0.1484
      6 O          -4.3023   -4.6045    1.2211 O.3     1  LIG11      -0.4914
      7 O           2.1618   -5.1855   -4.1588 O.3     1  LIG11      -0.3917
      8 N          -1.2652   -1.0896    1.6188 N.pl3   1  LIG11      -0.1950
      9 N           0.4580   -0.7896    0.1433 N.ar    1  LIG11      -0.2073
     10 N           0.7503   -2.0956   -1.8171 N.ar    1  LIG11      -0.1899
     11 N          -3.3678   -0.9866    3.4218 N.ar    1  LIG11      -0.2351
     12 N           4.6903    1.0393   -1.9863 N.ar    1  LIG11      -0.2552
     13 N           6.1318    2.4482    0.0574 N.ar    1  LIG11      -0.5621
     14 N           4.4396    2.1401    1.5253 N.ar    1  LIG11      -0.1535
     15 N           6.3328    3.0173    1.2503 N.ar    1  LIG11      -0.3597
     16 N           5.3565    2.8650    2.1500 N.ar    1  LIG11      -0.0878
     17 C          -0.6571   -1.4920    0.4057 C.ar    1  LIG11       0.1882
     18 C          -1.1512   -2.4931   -0.4084 C.ar    1  LIG11       0.2307
     19 C          -0.3608   -2.7813   -1.4994 C.ar    1  LIG11       0.2641
     20 C           1.1201   -1.1145   -0.9761 C.ar    1  LIG11       0.1659
     21 C          -2.6594   -2.1256    3.6723 C.ar    1  LIG11       0.1969
     22 C           2.3372   -0.3625   -1.3167 C.ar    1  LIG11       0.0227
     23 C          -3.1440   -3.2425    4.3286 C.ar    1  LIG11      -0.0160
     24 C          -3.4909   -2.6746   -0.0684 C.ar    1  LIG11       0.1702
     25 C           3.0105    0.4259   -0.3684 C.ar    1  LIG11      -0.0252
     26 C          -5.2006   -2.0111    4.6343 C.ar    1  LIG11      -0.0322
     27 C          -4.4431   -3.1732    4.8228 C.ar    1  LIG11      -0.0541
     28 C           2.8815   -0.4155   -2.6090 C.ar    1  LIG11      -0.0328
     29 C           0.1309   -4.1091   -3.4055 C.3     1  LIG11       0.1143
     30 C           4.1774    1.0985   -0.7294 C.ar    1  LIG11       0.0708
     31 C          -4.6147   -0.9545    3.9388 C.ar    1  LIG11       0.0327
     32 C          -4.4842   -3.3803    0.6295 C.ar    1  LIG11       0.1621
     33 C          -3.8094   -1.4407   -0.6501 C.ar    1  LIG11      -0.0157
     34 C           4.0348    0.2923   -2.8926 C.ar    1  LIG11       0.0289
     35 C          -6.5799   -1.8782    5.2000 C.3     1  LIG11      -0.0383
     36 C           1.3890   -4.8783   -3.0026 C.3     1  LIG11       0.0783
     37 C          -5.7432   -2.8076    0.8251 C.ar    1  LIG11      -0.0163
     38 C          -5.0783   -0.8842   -0.4681 C.ar    1  LIG11      -0.0581
     39 C          -6.0400   -1.5615    0.2784 C.ar    1  LIG11      -0.0581
     40 C           4.9187    1.8921    0.2545 C.ar    1  LIG11       0.0207
     41 C          -3.7592   -5.5909    0.3428 C.3     1  LIG11       0.0790
@<TRIPOS>BOND
     1     1     4    2
     2     1     5    2
     3     1     8    1
     4     1    21    1
     5     2    18    1
     6     2    24    1
     7     3    19    1
     8     3    29    1
     9     6    32    1
    10     6    41    1
    11     7    36    1
    12     8    17    1
    13     9    17   ar
    14     9    20   ar
    15    10    19   ar
    16    10    20   ar
    17    11    21   ar
    18    11    31   ar
    19    12    30   ar
    20    12    34   ar
    21    13    15   ar
    22    13    40   ar
    23    14    16   ar
    24    14    40   ar
    25    15    16   ar
    26    17    18   ar
    27    18    19   ar
    28    20    22    1
    29    21    23   ar
    30    22    25   ar
    31    22    28   ar
    32    23    27   ar
    33    24    32   ar
    34    24    33   ar
    35    25    30   ar
    36    26    27   ar
    37    26    31   ar
    38    26    35    1
    39    28    34   ar
    40    29    36    1
    41    30    40    1
    42    32    37   ar
    43    33    38   ar
    44    37    39   ar
    45    38    39   ar
