@<TRIPOS>MOLECULE
BOSENTAN_50CONFORMERS.pdb
 39 42 0 0 0
SMALL
GASTEIGER

@<TRIPOS>ATOM
      1  S1        -2.2130   -0.9610    2.7860 S.O2    1  LGD1        0.0943
      2  O2        -1.2310   -1.8870    3.3660 O.2     1  LGD1       -0.1483
      3  O3        -2.3150    0.3660    3.4370 O.2     1  LGD1       -0.1483
      4  O4        -2.4510   -2.9280   -0.0960 O.3     1  LGD1       -0.4427
      5  O5        -0.5660   -3.7200   -2.0470 O.3     1  LGD1       -0.4552
      6  O6        -0.6560   -4.8360    1.1410 O.3     1  LGD1       -0.4684
      7  O7        -1.0530   -6.3730   -2.7650 O.3     1  LGD1       -0.2162
      8  N8        -1.7870   -0.6080    1.2480 N.pl3   1  LGD1       -0.0737
      9  N9         0.3610   -0.5810    0.4590 N.ar    1  LGD1       -0.2027
     10  N10        0.9730   -2.0690   -1.4600 N.ar    1  LGD1       -0.1866
     11  N11        3.5900   -1.1320   -1.2680 N.ar    1  LGD1       -0.2224
     12  N12        2.5820    0.8690   -0.0850 N.ar    1  LGD1       -0.2224
     13  C13       -7.3260   -3.9710    1.5890 C.3     1  LGD1        0.0189
     14  C14       -6.0780   -3.1800    1.8900 C.ar    1  LGD1       -0.0227
     15  C15       -7.6350   -3.9770    0.1120 C.3     1  LGD1        0.0044
     16  C16       -8.5540   -3.4160    2.3330 C.3     1  LGD1        0.0044
     17  C17       -7.2090   -5.4830    1.9100 C.3     1  LGD1        0.0044
     18  C18       -5.9650   -1.8470    1.5700 C.ar    1  LGD1       -0.0029
     19  C19       -5.0280   -3.7830    2.6350 C.ar    1  LGD1       -0.0029
     20  C20       -3.7990   -1.7080    2.5850 C.ar    1  LGD1        0.1271
     21  C21       -4.8750   -1.0430    2.0160 C.ar    1  LGD1        0.0199
     22  C22       -3.9180   -3.0410    3.0260 C.ar    1  LGD1        0.0199
     23  C23       -0.8110   -1.2550    0.5910 C.ar    1  LGD1        0.2125
     24  C24       -1.1400   -2.3210   -0.2160 C.ar    1  LGD1        0.2327
     25  C25       -0.2180   -2.6770   -1.2160 C.ar    1  LGD1        0.2651
     26  C26        1.1700   -1.0450   -0.5500 C.ar    1  LGD1        0.2028
     27  C27       -2.7100   -4.3130   -0.0590 C.ar    1  LGD1        0.1793
     28  C28        2.6010   -0.3900   -0.5990 C.ar    1  LGD1        0.1990
     29  C29        0.4460   -4.8130   -1.9160 C.3     1  LGD1        0.2426
     30  C30       -1.9410   -5.1940    0.6780 C.ar    1  LGD1        0.1730
     31  C31       -3.9190   -4.7220   -0.5350 C.ar    1  LGD1        0.0406
     32  C32       -2.2500   -6.5580    0.7410 C.ar    1  LGD1        0.0401
     33  C33        0.2050   -5.7470   -3.0780 C.3     1  LGD1        0.2292
     34  C34       -4.1890   -6.1270   -0.6620 C.ar    1  LGD1        0.0033
     35  C35       -3.3490   -6.9720    0.0120 C.ar    1  LGD1        0.0033
     36  C36        4.8260   -0.5880   -1.3240 C.ar    1  LGD1        0.1023
     37  C37        3.8140    1.4510   -0.2760 C.ar    1  LGD1        0.1023
     38  C38        4.8740    0.7260   -0.7820 C.ar    1  LGD1        0.0414
     39  C39       -0.1790   -5.1290    2.4860 C.3     1  LGD1        0.2526
@<TRIPOS>BOND
     1    33     7    1
     2    33    29    1
     3     5    29    1
     4     5    25    1
     5    10    25   ar
     6    10    26   ar
     7    36    11   ar
     8    36    38   ar
     9    11    28   ar
    10    25    24   ar
    11    38    37   ar
    12    34    31   ar
    13    34    35   ar
    14    28    26    1
    15    28    12   ar
    16    26     9   ar
    17    31    27   ar
    18    37    12   ar
    19    24     4    1
    20    24    23   ar
    21     4    27    1
    22    27    30   ar
    23    35    32   ar
    24    15    13    1
    25     9    23   ar
    26    23     8    1
    27    30    32   ar
    28    30     6    1
    29     6    39    1
    30     8     1    1
    31    18    14   ar
    32    18    21   ar
    33    13    14    1
    34    13    17    1
    35    13    16    1
    36    14    19   ar
    37    21    20   ar
    38    20     1    1
    39    20    22   ar
    40    19    22   ar
    41     1     2    2
    42     1     3    2
@<TRIPOS>MOLECULE
46174111
 29 32 0 0 0
SMALL
GASTEIGER

@<TRIPOS>ATOM
      1 CL         -2.6263   -9.8719    5.4725 Cl      1  LIG11      -0.0762
      2 S          -3.2741   -8.1709    2.3085 S.O2    1  LIG11       0.0758
      3 S          -4.0403   -5.0656   -0.5609 S.2     1  LIG11      -0.0918
      4 O          -4.1020   -2.3844    5.0290 O.3     1  LIG11      -0.4526
      5 O          -3.7569   -0.3371    3.8029 O.3     1  LIG11      -0.4526
      6 O          -6.2521   -6.8311    2.0615 O.2     1  LIG11      -0.2911
      7 O          -3.2057   -9.3878    1.5276 O.2     1  LIG11      -0.1499
      8 O          -2.1326   -7.6921    3.0592 O.2     1  LIG11      -0.1499
      9 O          -5.1295   -6.9067    5.2490 O.2     1  LIG11      -0.3364
     10 N          -4.6201   -8.2816    3.3010 N.pl3   1  LIG11      -0.1821
     11 N          -4.7462   -6.7770    6.5715 N.ar    1  LIG11      -0.0798
     12 C          -5.8077   -3.3861    1.9118 C.ar    1  LIG11      -0.0333
     13 C          -6.5154   -4.5896    1.3172 C.3     1  LIG11       0.0366
     14 C          -5.6497   -2.1554    1.2108 C.ar    1  LIG11      -0.0432
     15 C          -3.4058   -6.9456    1.0659 C.ar    1  LIG11       0.1261
     16 C          -4.4348   -6.0526    0.7981 C.ar    1  LIG11       0.0814
     17 C          -5.3197   -3.4941    3.2335 C.ar    1  LIG11      -0.0123
     18 C          -5.7399   -5.9013    1.4345 C.2     1  LIG11       0.1759
     19 C          -4.6456   -2.4256    3.7841 C.ar    1  LIG11       0.1665
     20 C          -4.4525   -1.2615    3.0896 C.ar    1  LIG11       0.1665
     21 C          -4.9396   -1.0958    1.8131 C.ar    1  LIG11      -0.0130
     22 C          -6.1610   -1.9082   -0.1849 C.3     1  LIG11      -0.0393
     23 C          -2.2922   -6.7644    0.1701 C.ar    1  LIG11      -0.0273
     24 C          -3.5334   -1.0586    5.0325 C.3     1  LIG11       0.2332
     25 C          -2.5071   -5.7707   -0.7515 C.ar    1  LIG11      -0.0217
     26 C          -4.4201   -7.9073    4.6566 C.ar    1  LIG11       0.2554
     27 C          -3.6143   -8.4980    5.6042 C.ar    1  LIG11       0.1262
     28 C          -3.8436   -7.7452    6.7813 C.ar    1  LIG11       0.1009
     29 C          -3.2676   -7.9354    8.1323 C.3     1  LIG11      -0.0176
@<TRIPOS>BOND
     1     1    27    1
     2     2    10    1
     3     2    15    1
     4     2     8    2
     5     2     7    2
     6     3    16   ar
     7     3    25   ar
     8     4    24    1
     9     4    19    1
    10     5    20    1
    11     5    24    1
    12     6    18    2
    13     9    11   ar
    14     9    26   ar
    15    10    26    1
    16    11    28   ar
    17    12    17   ar
    18    12    14   ar
    19    13    18    1
    20    13    12    1
    21    14    21   ar
    22    14    22    1
    23    15    23   ar
    24    15    16   ar
    25    16    18    1
    26    17    19   ar
    27    19    20   ar
    28    20    21   ar
    29    23    25   ar
    30    26    27   ar
    31    27    28   ar
    32    28    29    1
