@<TRIPOS>MOLECULE
BOSENTAN_50CONFORMERS.pdb
 39 42 0 0 0
SMALL
GASTEIGER

@<TRIPOS>ATOM
      1  S1        -2.2840   -1.7020    2.7920 S.O2    1  LGD1        0.0943
      2  O2        -1.2910   -2.8260    2.7750 O.2     1  LGD1       -0.1483
      3  O3        -2.3930   -0.8070    3.9400 O.2     1  LGD1       -0.1483
      4  O4        -2.4010   -2.8690   -0.1560 O.3     1  LGD1       -0.4427
      5  O5        -0.5180   -3.7820   -2.1180 O.3     1  LGD1       -0.4552
      6  O6        -3.7020   -5.1000   -1.0030 O.3     1  LGD1       -0.4684
      7  O7        -0.3340   -6.6490   -3.2110 O.3     1  LGD1       -0.2162
      8  N8        -1.7980   -0.6550    1.4700 N.pl3   1  LGD1       -0.0737
      9  N9         0.3470   -0.5780    0.4120 N.ar    1  LGD1       -0.2027
     10  N10        0.9650   -2.0960   -1.4250 N.ar    1  LGD1       -0.1866
     11  N11        2.8510    0.3790   -1.5520 N.ar    1  LGD1       -0.2224
     12  N12        3.4200   -0.7910    0.5080 N.ar    1  LGD1       -0.2224
     13  C13       -7.9070   -3.8870    2.0180 C.3     1  LGD1        0.0189
     14  C14       -6.5130   -3.3220    2.1770 C.ar    1  LGD1       -0.0227
     15  C15       -7.9750   -5.3620    1.5490 C.3     1  LGD1        0.0044
     16  C16       -8.7610   -3.2350    0.9520 C.3     1  LGD1        0.0044
     17  C17       -8.7090   -3.7420    3.2610 C.3     1  LGD1        0.0044
     18  C18       -6.0430   -2.2760    1.3750 C.ar    1  LGD1       -0.0029
     19  C19       -5.6600   -3.9500    3.0900 C.ar    1  LGD1       -0.0029
     20  C20       -3.9310   -2.3680    2.5310 C.ar    1  LGD1        0.1271
     21  C21       -4.7710   -1.7290    1.6020 C.ar    1  LGD1        0.0199
     22  C22       -4.3530   -3.4990    3.2810 C.ar    1  LGD1        0.0199
     23  C23       -0.8750   -1.0970    0.4740 C.ar    1  LGD1        0.2125
     24  C24       -1.1340   -2.2520   -0.2660 C.ar    1  LGD1        0.2327
     25  C25       -0.2040   -2.7310   -1.1970 C.ar    1  LGD1        0.2651
     26  C26        1.1990   -1.0880   -0.5410 C.ar    1  LGD1        0.2028
     27  C27       -3.3770   -2.7360   -1.1750 C.ar    1  LGD1        0.1793
     28  C28        2.6320   -0.5100   -0.5510 C.ar    1  LGD1        0.1990
     29  C29        0.5360   -4.4480   -2.8430 C.3     1  LGD1        0.2426
     30  C30       -4.0330   -3.9020   -1.6140 C.ar    1  LGD1        0.1730
     31  C31       -3.8180   -1.5030   -1.6590 C.ar    1  LGD1        0.0406
     32  C32       -4.9260   -3.8420   -2.6810 C.ar    1  LGD1        0.0401
     33  C33       -0.1530   -5.3780   -3.8670 C.3     1  LGD1        0.2292
     34  C34       -4.9050   -1.4360   -2.5290 C.ar    1  LGD1        0.0033
     35  C35       -5.3980   -2.6190   -3.1380 C.ar    1  LGD1        0.0033
     36  C36        3.9750    1.1460   -1.4440 C.ar    1  LGD1        0.1023
     37  C37        4.6250   -0.1930    0.5720 C.ar    1  LGD1        0.1023
     38  C38        4.8680    0.8060   -0.3410 C.ar    1  LGD1        0.0414
     39  C39       -4.7230   -5.5850   -0.2030 C.3     1  LGD1        0.2526
@<TRIPOS>BOND
     1    33     7    1
     2    33    29    1
     3     5    29    1
     4     5    25    1
     5    10    25   ar
     6    10    26   ar
     7    36    11   ar
     8    36    38   ar
     9    11    28   ar
    10    25    24   ar
    11    38    37   ar
    12    34    31   ar
    13    34    35   ar
    14    28    26    1
    15    28    12   ar
    16    26     9   ar
    17    31    27   ar
    18    37    12   ar
    19    24     4    1
    20    24    23   ar
    21     4    27    1
    22    27    30   ar
    23    35    32   ar
    24    15    13    1
    25     9    23   ar
    26    23     8    1
    27    30    32   ar
    28    30     6    1
    29     6    39    1
    30     8     1    1
    31    18    14   ar
    32    18    21   ar
    33    13    14    1
    34    13    17    1
    35    13    16    1
    36    14    19   ar
    37    21    20   ar
    38    20     1    1
    39    20    22   ar
    40    19    22   ar
    41     1     2    2
    42     1     3    2
@<TRIPOS>MOLECULE
9843631
 28 31 0 0 0
SMALL
GASTEIGER

@<TRIPOS>ATOM
      1 S          -4.0741   -0.2758    0.0479 S.O2    1  LIG11       0.0752
      2 O          -4.2148   -3.5430    1.4935 O.2     1  LIG11      -0.3377
      3 O          -5.4105    0.2718    0.1565 O.2     1  LIG11      -0.1499
      4 O          -2.9510    0.6051   -0.1861 O.2     1  LIG11      -0.1499
      5 O           2.9706   -0.6918    0.6597 O.2     1  LIG11      -0.4436
      6 N          -3.7285   -1.1485    1.4702 N.pl3   1  LIG11      -0.1831
      7 N          -5.2823   -4.3826    1.7443 N.ar    1  LIG11      -0.0810
      8 N           3.3098    0.2665   -1.3568 N.ar    1  LIG11      -0.2175
      9 C          -4.0944   -1.5331   -1.2301 C.ar    1  LIG11       0.1162
     10 C          -2.9178   -2.0479   -1.8124 C.ar    1  LIG11       0.0087
     11 C          -1.5507   -1.6353   -1.4686 C.ar    1  LIG11      -0.0160
     12 C          -5.3591   -1.9678   -1.6705 C.ar    1  LIG11      -0.0345
     13 C          -4.5939   -2.2527    1.6880 C.ar    1  LIG11       0.2399
     14 C          -3.0631   -3.0206   -2.8243 C.ar    1  LIG11      -0.0521
     15 C          -5.8842   -2.2209    2.1696 C.ar    1  LIG11       0.0350
     16 C          -0.8552   -0.7500   -2.3062 C.ar    1  LIG11      -0.0533
     17 C          -0.8847   -2.1496   -0.3478 C.ar    1  LIG11      -0.0533
     18 C          -5.4678   -2.9298   -2.6723 C.ar    1  LIG11      -0.0599
     19 C          -4.3197   -3.4580   -3.2480 C.ar    1  LIG11      -0.0611
     20 C           1.1079   -0.8429   -0.8711 C.ar    1  LIG11       0.0369
     21 C          -6.2801   -3.5876    2.1484 C.ar    1  LIG11       0.0854
     22 C           0.4567   -0.3641   -2.0143 C.ar    1  LIG11      -0.0489
     23 C           0.4223   -1.7434   -0.0428 C.ar    1  LIG11      -0.0489
     24 C          -6.6836   -1.0637    2.6344 C.3     1  LIG11      -0.0330
     25 C          -7.5903   -4.1683    2.5280 C.3     1  LIG11      -0.0188
     26 C           2.4711   -0.4027   -0.5859 C.ar    1  LIG11       0.2271
     27 C           4.2192   -0.1473    0.6525 C.ar    1  LIG11       0.1125
     28 C           4.4246    0.4274   -0.5752 C.ar    1  LIG11       0.0663
@<TRIPOS>BOND
     1     1     3    2
     2     1     4    2
     3     1     6    1
     4     1     9    1
     5     2     7   ar
     6     2    13   ar
     7     5    26   ar
     8     5    27   ar
     9     6    13    1
    10     7    21   ar
    11     8    26   ar
    12     8    28   ar
    13     9    10   ar
    14     9    12   ar
    15    10    11    1
    16    10    14   ar
    17    11    16   ar
    18    11    17   ar
    19    12    18   ar
    20    13    15   ar
    21    14    19   ar
    22    15    21   ar
    23    15    24    1
    24    16    22   ar
    25    17    23   ar
    26    18    19   ar
    27    20    22   ar
    28    20    23   ar
    29    20    26    1
    30    21    25    1
    31    27    28   ar
