@<TRIPOS>MOLECULE
BOSENTAN_50CONFORMERS.pdb
 39 42 0 0 0
SMALL
GASTEIGER

@<TRIPOS>ATOM
      1  S1        -1.4970    0.4400    2.6580 S.O2    1  LGD1        0.0943
      2  O2        -0.8100   -0.4410    3.6510 O.2     1  LGD1       -0.1483
      3  O3        -0.9200    1.6840    2.0120 O.2     1  LGD1       -0.1483
      4  O4        -2.3710   -2.9870   -0.1220 O.3     1  LGD1       -0.4427
      5  O5        -0.5470   -3.8010   -2.0600 O.3     1  LGD1       -0.4552
      6  O6        -0.7430   -4.8190    1.2510 O.3     1  LGD1       -0.4684
      7  O7        -1.1510   -5.5230   -4.1990 O.3     1  LGD1       -0.2162
      8  N8        -1.7760   -0.7060    1.3760 N.pl3   1  LGD1       -0.0737
      9  N9         0.4170   -0.5780    0.4460 N.ar    1  LGD1       -0.2027
     10  N10        0.9570   -2.0600   -1.3620 N.ar    1  LGD1       -0.1866
     11  N11        2.3610    0.5000   -1.8300 N.ar    1  LGD1       -0.2224
     12  N12        3.4760   -0.6410    0.0820 N.ar    1  LGD1       -0.2224
     13  C13       -7.1790    1.1550    4.8090 C.3     1  LGD1        0.0189
     14  C14       -5.7770    0.9400    4.2660 C.ar    1  LGD1       -0.0227
     15  C15       -8.0860    2.1090    4.0520 C.3     1  LGD1        0.0044
     16  C16       -7.0320    1.7110    6.2150 C.3     1  LGD1        0.0044
     17  C17       -7.9580   -0.2170    4.9340 C.3     1  LGD1        0.0044
     18  C18       -5.0880    2.0730    3.7570 C.ar    1  LGD1       -0.0029
     19  C19       -5.1990   -0.3450    4.2590 C.ar    1  LGD1       -0.0029
     20  C20       -3.1420    0.6730    3.3020 C.ar    1  LGD1        0.1271
     21  C21       -3.7110    1.9450    3.3880 C.ar    1  LGD1        0.0199
     22  C22       -3.8680   -0.4280    3.7620 C.ar    1  LGD1        0.0199
     23  C23       -0.8220   -1.1540    0.4830 C.ar    1  LGD1        0.2125
     24  C24       -1.1840   -2.2400   -0.3020 C.ar    1  LGD1        0.2327
     25  C25       -0.2520   -2.7270   -1.2210 C.ar    1  LGD1        0.2651
     26  C26        1.1890   -1.0100   -0.5520 C.ar    1  LGD1        0.2028
     27  C27       -2.7840   -3.6490    0.9860 C.ar    1  LGD1        0.1793
     28  C28        2.4860   -0.3510   -0.7800 C.ar    1  LGD1        0.1990
     29  C29        0.3250   -4.0080   -3.2670 C.3     1  LGD1        0.2426
     30  C30       -2.0040   -4.5850    1.6330 C.ar    1  LGD1        0.1730
     31  C31       -4.0360   -3.3250    1.4550 C.ar    1  LGD1        0.0406
     32  C32       -2.5190   -5.2950    2.7260 C.ar    1  LGD1        0.0401
     33  C33       -0.6280   -4.2550   -4.4030 C.3     1  LGD1        0.2292
     34  C34       -4.5900   -4.1080    2.4960 C.ar    1  LGD1        0.0033
     35  C35       -3.8510   -5.0820    3.1320 C.ar    1  LGD1        0.0033
     36  C36        3.4930    1.1150   -2.1940 C.ar    1  LGD1        0.1023
     37  C37        4.6690   -0.0760   -0.3150 C.ar    1  LGD1        0.1023
     38  C38        4.6380    0.7360   -1.4650 C.ar    1  LGD1        0.0414
     39  C39       -0.7280   -5.9650    0.4290 C.3     1  LGD1        0.2526
@<TRIPOS>BOND
     1    33     7    1
     2    33    29    1
     3     5    29    1
     4     5    25    1
     5    10    25   ar
     6    10    26   ar
     7    36    11   ar
     8    36    38   ar
     9    11    28   ar
    10    25    24   ar
    11    38    37   ar
    12    34    31   ar
    13    34    35   ar
    14    28    26    1
    15    28    12   ar
    16    26     9   ar
    17    31    27   ar
    18    37    12   ar
    19    24     4    1
    20    24    23   ar
    21     4    27    1
    22    27    30   ar
    23    35    32   ar
    24    15    13    1
    25     9    23   ar
    26    23     8    1
    27    30    32   ar
    28    30     6    1
    29     6    39    1
    30     8     1    1
    31    18    14   ar
    32    18    21   ar
    33    13    14    1
    34    13    17    1
    35    13    16    1
    36    14    19   ar
    37    21    20   ar
    38    20     1    1
    39    20    22   ar
    40    19    22   ar
    41     1     2    2
    42     1     3    2
@<TRIPOS>MOLECULE
46174111
 29 32 0 0 0
SMALL
GASTEIGER

@<TRIPOS>ATOM
      1 CL          1.8331   -5.4740    5.4912 Cl      1  LIG11      -0.0762
      2 S          -2.0145   -5.2364    5.0275 S.O2    1  LIG11       0.0758
      3 S          -4.2578   -3.5013    1.8419 S.2     1  LIG11      -0.0918
      4 O          -2.0151    1.8987    2.9496 O.3     1  LIG11      -0.4526
      5 O          -3.6319    3.6442    3.3406 O.3     1  LIG11      -0.4526
      6 O          -3.3336   -2.5625    5.5109 O.2     1  LIG11      -0.2911
      7 O          -3.1185   -5.4969    5.9240 O.2     1  LIG11      -0.1499
      8 O          -1.1169   -6.2851    4.5944 O.2     1  LIG11      -0.1499
      9 O          -0.6643   -3.8714    8.0035 O.2     1  LIG11      -0.3364
     10 N          -1.1290   -3.9090    5.6010 N.pl3   1  LIG11      -0.1821
     11 N           0.3030   -4.3090    8.8906 N.ar    1  LIG11      -0.0798
     12 C          -4.8077   -0.2613    4.0172 C.ar    1  LIG11      -0.0333
     13 C          -5.1841   -1.7112    4.2820 C.3     1  LIG11       0.0366
     14 C          -5.7728    0.7734    4.2069 C.ar    1  LIG11      -0.0432
     15 C          -2.8147   -4.7367    3.5578 C.ar    1  LIG11       0.1261
     16 C          -3.6626   -3.6406    3.4478 C.ar    1  LIG11       0.0814
     17 C          -3.5196    0.0822    3.5582 C.ar    1  LIG11      -0.0123
     18 C          -4.0102   -2.6626    4.4798 C.2     1  LIG11       0.1759
     19 C          -3.2171    1.4130    3.3601 C.ar    1  LIG11       0.1665
     20 C          -4.1362    2.4048    3.5798 C.ar    1  LIG11       0.1665
     21 C          -5.4160    2.1199    3.9984 C.ar    1  LIG11      -0.0130
     22 C          -7.1699    0.4807    4.6903 C.3     1  LIG11      -0.0393
     23 C          -2.6886   -5.4603    2.3292 C.ar    1  LIG11      -0.0273
     24 C          -2.2769    3.3175    2.9698 C.3     1  LIG11       0.2332
     25 C          -3.4240   -4.8919    1.3167 C.ar    1  LIG11      -0.0217
     26 C          -0.3379   -4.2534    6.7373 C.ar    1  LIG11       0.2554
     27 C           0.8790   -4.8950    6.7687 C.ar    1  LIG11       0.1262
     28 C           1.2304   -4.9182    8.1402 C.ar    1  LIG11       0.1009
     29 C           2.4456   -5.4826    8.7708 C.3     1  LIG11      -0.0176
@<TRIPOS>BOND
     1     1    27    1
     2     2    10    1
     3     2    15    1
     4     2     8    2
     5     2     7    2
     6     3    16   ar
     7     3    25   ar
     8     4    24    1
     9     4    19    1
    10     5    20    1
    11     5    24    1
    12     6    18    2
    13     9    11   ar
    14     9    26   ar
    15    10    26    1
    16    11    28   ar
    17    12    17   ar
    18    12    14   ar
    19    13    18    1
    20    13    12    1
    21    14    21   ar
    22    14    22    1
    23    15    23   ar
    24    15    16   ar
    25    16    18    1
    26    17    19   ar
    27    19    20   ar
    28    20    21   ar
    29    23    25   ar
    30    26    27   ar
    31    27    28   ar
    32    28    29    1
