@<TRIPOS>MOLECULE
BOSENTAN_50CONFORMERS.pdb
 39 42 0 0 0
SMALL
GASTEIGER

@<TRIPOS>ATOM
      1  S1        -1.5600    0.1400    2.8420 S.O2    1  LGD1        0.0943
      2  O2        -0.9350    1.4220    2.4130 O.2     1  LGD1       -0.1483
      3  O3        -2.9150    0.0990    3.3870 O.2     1  LGD1       -0.1483
      4  O4        -2.3630   -2.9540   -0.0030 O.3     1  LGD1       -0.4427
      5  O5        -0.5650   -3.7540   -2.1300 O.3     1  LGD1       -0.4552
      6  O6        -0.3240   -4.6800    0.9300 O.3     1  LGD1       -0.4684
      7  O7        -1.0280   -5.0230   -4.7770 O.3     1  LGD1       -0.2162
      8  N8        -1.7690   -0.7210    1.4030 N.pl3   1  LGD1       -0.0737
      9  N9         0.3520   -0.4890    0.3510 N.ar    1  LGD1       -0.2027
     10  N10        1.0110   -2.1490   -1.2770 N.ar    1  LGD1       -0.1866
     11  N11        3.1480   -0.3710    0.8620 N.ar    1  LGD1       -0.2224
     12  N12        3.3190   -0.3940   -1.5370 N.ar    1  LGD1       -0.2224
     13  C13        2.1990   -3.3310    6.0130 C.3     1  LGD1        0.0189
     14  C14        1.2120   -2.4890    5.1830 C.ar    1  LGD1       -0.0227
     15  C15        1.6180   -4.6070    6.7170 C.3     1  LGD1        0.0044
     16  C16        2.7270   -2.4340    7.1650 C.3     1  LGD1        0.0044
     17  C17        3.3710   -3.8180    5.2220 C.3     1  LGD1        0.0044
     18  C18       -0.1550   -2.6870    5.2110 C.ar    1  LGD1       -0.0029
     19  C19        1.7590   -1.4720    4.3330 C.ar    1  LGD1       -0.0029
     20  C20       -0.4670   -0.8250    3.7520 C.ar    1  LGD1        0.1271
     21  C21       -0.9840   -1.7530    4.5850 C.ar    1  LGD1        0.0199
     22  C22        0.9130   -0.6230    3.6310 C.ar    1  LGD1        0.0199
     23  C23       -0.8100   -1.1400    0.5330 C.ar    1  LGD1        0.2125
     24  C24       -1.1460   -2.2520   -0.2650 C.ar    1  LGD1        0.2327
     25  C25       -0.2600   -2.7420   -1.2560 C.ar    1  LGD1        0.2651
     26  C26        1.1690   -1.0290   -0.5500 C.ar    1  LGD1        0.2028
     27  C27       -2.4630   -4.2870   -0.0290 C.ar    1  LGD1        0.1793
     28  C28        2.6480   -0.5720   -0.3730 C.ar    1  LGD1        0.1990
     29  C29       -1.4080   -3.2040   -3.1580 C.3     1  LGD1        0.2426
     30  C30       -1.4840   -5.1510    0.4360 C.ar    1  LGD1        0.1730
     31  C31       -3.5640   -4.8130   -0.6710 C.ar    1  LGD1        0.0406
     32  C32       -1.5640   -6.5400    0.3470 C.ar    1  LGD1        0.0401
     33  C33       -1.9660   -4.3730   -3.9900 C.3     1  LGD1        0.2292
     34  C34       -3.6820   -6.2140   -0.8010 C.ar    1  LGD1        0.0033
     35  C35       -2.7260   -7.0980   -0.2740 C.ar    1  LGD1        0.0033
     36  C36        4.4360    0.1070    0.8470 C.ar    1  LGD1        0.1023
     37  C37        4.6360   -0.0820   -1.5800 C.ar    1  LGD1        0.1023
     38  C38        5.1950    0.1290   -0.3330 C.ar    1  LGD1        0.0414
     39  C39       -0.3450   -4.5330    2.4310 C.3     1  LGD1        0.2526
@<TRIPOS>BOND
     1    33     7    1
     2    33    29    1
     3     5    29    1
     4     5    25    1
     5    10    25   ar
     6    10    26   ar
     7    36    11   ar
     8    36    38   ar
     9    11    28   ar
    10    25    24   ar
    11    38    37   ar
    12    34    31   ar
    13    34    35   ar
    14    28    26    1
    15    28    12   ar
    16    26     9   ar
    17    31    27   ar
    18    37    12   ar
    19    24     4    1
    20    24    23   ar
    21     4    27    1
    22    27    30   ar
    23    35    32   ar
    24    15    13    1
    25     9    23   ar
    26    23     8    1
    27    30    32   ar
    28    30     6    1
    29     6    39    1
    30     8     1    1
    31    18    14   ar
    32    18    21   ar
    33    13    14    1
    34    13    17    1
    35    13    16    1
    36    14    19   ar
    37    21    20   ar
    38    20     1    1
    39    20    22   ar
    40    19    22   ar
    41     1     2    2
    42     1     3    2
@<TRIPOS>MOLECULE
01479498K
 34 38 0 0 0
SMALL
GASTEIGER

@<TRIPOS>ATOM
      1 C           0.9816   -3.5109    2.8819 C.3     1  LIG11       0.1526
      2 C          -0.0938   -4.3770    2.2969 C.2     1  LIG11       0.0278
      3 C           0.5206   -2.3921    3.8290 C.ar    1  LIG11       0.0009
      4 O           1.8151   -2.8881    1.8651 O.3     1  LIG11      -0.4789
      5 C          -0.6270   -4.1725    1.0781 C.2     1  LIG11       0.0016
      6 C          -0.5006   -5.5318    3.2022 C.2     1  LIG11       0.0721
      7 C           1.4975   -1.6025    4.4695 C.ar    1  LIG11      -0.0091
      8 C          -0.8461   -2.0993    4.0618 C.ar    1  LIG11      -0.0511
      9 C           1.1308   -2.4385    0.7681 C.ar    1  LIG11       0.1298
     10 C          -0.0675   -3.0148    0.3421 C.ar    1  LIG11       0.0283
     11 C          -1.7146   -5.0308    0.5676 C.ar    1  LIG11      -0.0165
     12 O           0.3288   -6.4824    3.2466 O.co2   1  LIG11      -0.5448
     13 O          -1.5808   -5.3639    3.8359 O.co2   1  LIG11      -0.5448
     14 C           1.0827   -0.5703    5.2851 C.ar    1  LIG11       0.1666
     15 C          -1.2381   -1.0462    4.8955 C.ar    1  LIG11      -0.0158
     16 C           1.7059   -1.3903    0.0546 C.ar    1  LIG11      -0.0158
     17 C          -0.6971   -2.4991   -0.8048 C.ar    1  LIG11      -0.0087
     18 C          -1.4306   -6.1496   -0.2179 C.ar    1  LIG11      -0.0505
     19 C          -3.0485   -4.6771    0.8000 C.ar    1  LIG11      -0.0505
     20 C          -0.2491   -0.2981    5.4900 C.ar    1  LIG11       0.1662
     21 O           1.8966    0.2852    5.9619 O.3     1  LIG11      -0.4526
     22 C           1.0604   -0.8852   -1.0746 C.ar    1  LIG11      -0.0164
     23 C          -0.1519   -1.4284   -1.5102 C.ar    1  LIG11       0.1217
     24 C          -2.4721   -6.8779   -0.7991 C.ar    1  LIG11      -0.0194
     25 C          -4.0887   -5.4030    0.2124 C.ar    1  LIG11      -0.0194
     26 O          -0.4432    0.7620    6.3204 O.3     1  LIG11      -0.4526
     27 C           0.9206    1.1135    6.6244 C.3     1  LIG11       0.2332
     28 O          -0.6661   -0.8286   -2.6195 O.3     1  LIG11      -0.4893
     29 C          -3.8028   -6.4933   -0.6100 C.ar    1  LIG11       0.1201
     30 C          -1.9440   -1.1545   -3.1762 C.3     1  LIG11       0.0946
     31 O          -4.7264   -7.2589   -1.2706 O.3     1  LIG11      -0.4951
     32 C          -3.1244   -0.8676   -2.2516 C.3     1  LIG11      -0.0281
     33 C          -1.9852   -2.5198   -3.8568 C.3     1  LIG11      -0.0281
     34 C          -6.0485   -6.7386   -1.3217 C.3     1  LIG11       0.0788
@<TRIPOS>BOND
     1     1     4    1
     2     1     2    1
     3     1     3    1
     4     2     5    2
     5     2     6    1
     6     3     8   ar
     7     3     7   ar
     8     4     9    1
     9     5    10    1
    10     5    11    1
    11     6    13   ar
    12     6    12   ar
    13     7    14   ar
    14     8    15   ar
    15     9    16   ar
    16     9    10   ar
    17    10    17   ar
    18    11    18   ar
    19    11    19   ar
    20    14    21    1
    21    14    20   ar
    22    15    20   ar
    23    16    22   ar
    24    17    23   ar
    25    18    24   ar
    26    19    25   ar
    27    20    26    1
    28    21    27    1
    29    22    23   ar
    30    23    28    1
    31    24    29   ar
    32    25    29   ar
    33    26    27    1
    34    28    30    1
    35    29    31    1
    36    30    33    1
    37    30    32    1
    38    31    34    1
