@<TRIPOS>MOLECULE
BOSENTAN_50CONFORMERS.pdb
 39 42 0 0 0
SMALL
GASTEIGER

@<TRIPOS>ATOM
      1  S1        -2.2840   -1.7020    2.7920 S.O2    1  LGD1        0.0943
      2  O2        -1.2910   -2.8260    2.7750 O.2     1  LGD1       -0.1483
      3  O3        -2.3930   -0.8070    3.9400 O.2     1  LGD1       -0.1483
      4  O4        -2.4010   -2.8690   -0.1560 O.3     1  LGD1       -0.4427
      5  O5        -0.5180   -3.7820   -2.1180 O.3     1  LGD1       -0.4552
      6  O6        -3.7020   -5.1000   -1.0030 O.3     1  LGD1       -0.4684
      7  O7        -0.3340   -6.6490   -3.2110 O.3     1  LGD1       -0.2162
      8  N8        -1.7980   -0.6550    1.4700 N.pl3   1  LGD1       -0.0737
      9  N9         0.3470   -0.5780    0.4120 N.ar    1  LGD1       -0.2027
     10  N10        0.9650   -2.0960   -1.4250 N.ar    1  LGD1       -0.1866
     11  N11        2.8510    0.3790   -1.5520 N.ar    1  LGD1       -0.2224
     12  N12        3.4200   -0.7910    0.5080 N.ar    1  LGD1       -0.2224
     13  C13       -7.9070   -3.8870    2.0180 C.3     1  LGD1        0.0189
     14  C14       -6.5130   -3.3220    2.1770 C.ar    1  LGD1       -0.0227
     15  C15       -7.9750   -5.3620    1.5490 C.3     1  LGD1        0.0044
     16  C16       -8.7610   -3.2350    0.9520 C.3     1  LGD1        0.0044
     17  C17       -8.7090   -3.7420    3.2610 C.3     1  LGD1        0.0044
     18  C18       -6.0430   -2.2760    1.3750 C.ar    1  LGD1       -0.0029
     19  C19       -5.6600   -3.9500    3.0900 C.ar    1  LGD1       -0.0029
     20  C20       -3.9310   -2.3680    2.5310 C.ar    1  LGD1        0.1271
     21  C21       -4.7710   -1.7290    1.6020 C.ar    1  LGD1        0.0199
     22  C22       -4.3530   -3.4990    3.2810 C.ar    1  LGD1        0.0199
     23  C23       -0.8750   -1.0970    0.4740 C.ar    1  LGD1        0.2125
     24  C24       -1.1340   -2.2520   -0.2660 C.ar    1  LGD1        0.2327
     25  C25       -0.2040   -2.7310   -1.1970 C.ar    1  LGD1        0.2651
     26  C26        1.1990   -1.0880   -0.5410 C.ar    1  LGD1        0.2028
     27  C27       -3.3770   -2.7360   -1.1750 C.ar    1  LGD1        0.1793
     28  C28        2.6320   -0.5100   -0.5510 C.ar    1  LGD1        0.1990
     29  C29        0.5360   -4.4480   -2.8430 C.3     1  LGD1        0.2426
     30  C30       -4.0330   -3.9020   -1.6140 C.ar    1  LGD1        0.1730
     31  C31       -3.8180   -1.5030   -1.6590 C.ar    1  LGD1        0.0406
     32  C32       -4.9260   -3.8420   -2.6810 C.ar    1  LGD1        0.0401
     33  C33       -0.1530   -5.3780   -3.8670 C.3     1  LGD1        0.2292
     34  C34       -4.9050   -1.4360   -2.5290 C.ar    1  LGD1        0.0033
     35  C35       -5.3980   -2.6190   -3.1380 C.ar    1  LGD1        0.0033
     36  C36        3.9750    1.1460   -1.4440 C.ar    1  LGD1        0.1023
     37  C37        4.6250   -0.1930    0.5720 C.ar    1  LGD1        0.1023
     38  C38        4.8680    0.8060   -0.3410 C.ar    1  LGD1        0.0414
     39  C39       -4.7230   -5.5850   -0.2030 C.3     1  LGD1        0.2526
@<TRIPOS>BOND
     1    33     7    1
     2    33    29    1
     3     5    29    1
     4     5    25    1
     5    10    25   ar
     6    10    26   ar
     7    36    11   ar
     8    36    38   ar
     9    11    28   ar
    10    25    24   ar
    11    38    37   ar
    12    34    31   ar
    13    34    35   ar
    14    28    26    1
    15    28    12   ar
    16    26     9   ar
    17    31    27   ar
    18    37    12   ar
    19    24     4    1
    20    24    23   ar
    21     4    27    1
    22    27    30   ar
    23    35    32   ar
    24    15    13    1
    25     9    23   ar
    26    23     8    1
    27    30    32   ar
    28    30     6    1
    29     6    39    1
    30     8     1    1
    31    18    14   ar
    32    18    21   ar
    33    13    14    1
    34    13    17    1
    35    13    16    1
    36    14    19   ar
    37    21    20   ar
    38    20     1    1
    39    20    22   ar
    40    19    22   ar
    41     1     2    2
    42     1     3    2
@<TRIPOS>MOLECULE
2-[[2-[2-butyl-4-[(Z)-2-carboxy-3-(6-methoxy-1,3-benzodioxol-5-yl)prop-1-enyl]pyrazol-3-yl]-5-methoxyphenoxy]methyl]benzoic acid
 45 49 0 0 0
SMALL
GASTEIGER

@<TRIPOS>ATOM
      1 O          -3.6921   -0.2546   -0.9857 O.3     1  LIG11      -0.4866
      2 O           5.3327   -1.4716    0.8219 O.3     1  LIG11      -0.4526
      3 O           6.3025    0.7151    1.1430 O.3     1  LIG11      -0.4525
      4 O           3.1591    2.7175   -1.9338 O.3     1  LIG11      -0.4947
      5 O          -7.1906   -2.4776   -3.0996 O.3     1  LIG11      -0.4950
      6 O          -0.0004    2.6656   -2.5642 O.co2   1  LIG11      -0.5449
      7 O           0.1495    2.5632   -0.2825 O.co2   1  LIG11      -0.5449
      8 O          -6.4675    1.0289    0.6216 O.co2   1  LIG11      -0.5446
      9 O          -8.1684   -0.4499    0.5587 O.co2   1  LIG11      -0.5446
     10 N          -0.8834   -3.6251   -1.8468 N.ar    1  LIG11      -0.2630
     11 N           0.1924   -3.7281   -1.0368 N.ar    1  LIG11      -0.1785
     12 C          -1.6951   -2.5278   -1.5258 C.ar    1  LIG11       0.0795
     13 C          -0.9431   -4.5014   -3.0069 C.3     1  LIG11       0.0422
     14 C           0.2498   -4.3818   -3.9645 C.3     1  LIG11      -0.0336
     15 C          -0.6793   -1.6240   -1.1687 C.ar    1  LIG11       0.0207
     16 C          -3.1735   -2.5054   -1.7745 C.ar    1  LIG11       0.0425
     17 C           0.2287   -3.0720   -4.7576 C.3     1  LIG11      -0.0542
     18 C           0.3484   -2.4574   -0.6677 C.ar    1  LIG11       0.0571
     19 C          -0.6161   -0.1963   -1.1607 C.2     1  LIG11      -0.0459
     20 C           1.7467    0.2177   -2.1810 C.3     1  LIG11       0.0029
     21 C          -4.0359   -1.4139   -1.6070 C.ar    1  LIG11       0.1336
     22 C           0.4298    0.5789   -1.5384 C.2     1  LIG11      -0.0200
     23 C           2.9912    0.4126   -1.3194 C.ar    1  LIG11       0.0023
     24 C          -3.8294   -3.7025   -2.1450 C.ar    1  LIG11      -0.0456
     25 C           1.3365   -3.0320   -5.7982 C.3     1  LIG11      -0.0652
     26 C          -5.3586   -1.4363   -2.0953 C.ar    1  LIG11       0.0224
     27 C           3.6021    1.6827   -1.1517 C.ar    1  LIG11       0.1273
     28 C           3.5668   -0.6977   -0.6723 C.ar    1  LIG11      -0.0092
     29 C          -5.1612   -3.7515   -2.5867 C.ar    1  LIG11      -0.0191
     30 C           4.6643   -0.5014    0.1402 C.ar    1  LIG11       0.1667
     31 C          -5.9189   -2.5944   -2.6185 C.ar    1  LIG11       0.1236
     32 C           5.2178    0.7416    0.3208 C.ar    1  LIG11       0.1697
     33 C           4.7200    1.8517   -0.3204 C.ar    1  LIG11       0.0258
     34 C           0.1536    2.0836   -1.4518 C.2     1  LIG11       0.0680
     35 C          -3.8327   -0.2385    0.4533 C.3     1  LIG11       0.1153
     36 C           6.3474   -0.6863    1.4759 C.3     1  LIG11       0.2332
     37 C          -4.6597   -1.2763    1.2131 C.ar    1  LIG11      -0.0016
     38 C          -6.0653   -1.2130    1.3739 C.ar    1  LIG11       0.0037
     39 C          -3.9537   -2.3328    1.8371 C.ar    1  LIG11      -0.0547
     40 C           2.9432    3.9312   -1.2153 C.3     1  LIG11       0.0788
     41 C          -6.6970   -2.2066    2.1574 C.ar    1  LIG11      -0.0525
     42 C          -4.6021   -3.2890    2.6201 C.ar    1  LIG11      -0.0614
     43 C          -7.8655   -3.6790   -3.4346 C.3     1  LIG11       0.0788
     44 C          -5.9789   -3.2249    2.7826 C.ar    1  LIG11      -0.0611
     45 C          -6.9554   -0.1294    0.7870 C.2     1  LIG11       0.0720
@<TRIPOS>BOND
     1     1    35    1
     2     1    21    1
     3     2    36    1
     4     2    30    1
     5     3    32    1
     6     3    36    1
     7     4    27    1
     8     4    40    1
     9     5    31    1
    10     5    43    1
    11     6    34   ar
    12     7    34   ar
    13     8    45   ar
    14     9    45   ar
    15    10    11   ar
    16    10    12   ar
    17    10    13    1
    18    11    18   ar
    19    12    15   ar
    20    13    14    1
    21    14    17    1
    22    15    18   ar
    23    15    19    1
    24    16    24   ar
    25    16    21   ar
    26    16    12    1
    27    17    25    1
    28    19    22    2
    29    20    22    1
    30    20    23    1
    31    21    26   ar
    32    22    34    1
    33    23    28   ar
    34    23    27   ar
    35    24    29   ar
    36    26    31   ar
    37    27    33   ar
    38    28    30   ar
    39    29    31   ar
    40    30    32   ar
    41    32    33   ar
    42    35    37    1
    43    37    39   ar
    44    37    38   ar
    45    38    41   ar
    46    38    45    1
    47    39    42   ar
    48    41    44   ar
    49    42    44   ar
