@<TRIPOS>MOLECULE
BOSENTAN_50CONFORMERS.pdb
 39 42 0 0 0
SMALL
GASTEIGER

@<TRIPOS>ATOM
      1  S1        -2.5440    0.8820    1.3810 S.O2    1  LGD1        0.0943
      2  O2        -3.0580    1.0090   -0.0300 O.2     1  LGD1       -0.1483
      3  O3        -3.4510    1.0070    2.5580 O.2     1  LGD1       -0.1483
      4  O4        -2.5030   -2.6290   -0.5280 O.3     1  LGD1       -0.4427
      5  O5        -0.4920   -3.8130   -2.0760 O.3     1  LGD1       -0.4552
      6  O6        -2.0670   -1.1970   -2.9360 O.3     1  LGD1       -0.4684
      7  O7         0.0690   -6.9230   -2.9370 O.3     1  LGD1       -0.2162
      8  N8        -1.8600   -0.6450    1.4930 N.pl3   1  LGD1       -0.0737
      9  N9         0.4100   -0.5870    0.4360 N.ar    1  LGD1       -0.2027
     10  N10        0.9660   -2.0980   -1.4610 N.ar    1  LGD1       -0.1866
     11  N11        2.6500    0.7480   -1.3020 N.ar    1  LGD1       -0.2224
     12  N12        3.5170   -0.9850    0.1730 N.ar    1  LGD1       -0.2224
     13  C13        2.2420    4.4520    2.1170 C.3     1  LGD1        0.0189
     14  C14        1.0250    3.4900    1.9820 C.ar    1  LGD1       -0.0227
     15  C15        2.0010    5.4460    3.2800 C.3     1  LGD1        0.0044
     16  C16        2.6730    5.2910    0.8990 C.3     1  LGD1        0.0044
     17  C17        3.5210    3.6960    2.5530 C.3     1  LGD1        0.0044
     18  C18        0.6010    2.6040    3.0120 C.ar    1  LGD1       -0.0029
     19  C19        0.3390    3.5290    0.7610 C.ar    1  LGD1       -0.0029
     20  C20       -1.2400    1.9560    1.6370 C.ar    1  LGD1        0.1271
     21  C21       -0.4570    1.7090    2.7450 C.ar    1  LGD1        0.0199
     22  C22       -0.8450    2.7820    0.5840 C.ar    1  LGD1        0.0199
     23  C23       -0.8540   -1.1040    0.5510 C.ar    1  LGD1        0.2125
     24  C24       -1.1750   -2.2000   -0.3310 C.ar    1  LGD1        0.2327
     25  C25       -0.1850   -2.7510   -1.2360 C.ar    1  LGD1        0.2651
     26  C26        1.1720   -1.0790   -0.5680 C.ar    1  LGD1        0.2028
     27  C27       -3.4940   -1.9040   -1.1530 C.ar    1  LGD1        0.1793
     28  C28        2.5770   -0.4000   -0.6350 C.ar    1  LGD1        0.1990
     29  C29       -0.5060   -5.0230   -1.3510 C.3     1  LGD1        0.2426
     30  C30       -3.3220   -1.2950   -2.4140 C.ar    1  LGD1        0.1730
     31  C31       -4.8550   -2.2290   -0.7620 C.ar    1  LGD1        0.0406
     32  C32       -4.4180   -1.0620   -3.2580 C.ar    1  LGD1        0.0401
     33  C33       -0.9950   -6.1940   -2.2700 C.3     1  LGD1        0.2292
     34  C34       -5.9160   -1.6500   -1.4840 C.ar    1  LGD1        0.0033
     35  C35       -5.6950   -1.1630   -2.7440 C.ar    1  LGD1        0.0033
     36  C36        3.8630    1.3500   -1.3730 C.ar    1  LGD1        0.1023
     37  C37        4.7310   -0.3060    0.2120 C.ar    1  LGD1        0.1023
     38  C38        4.8960    0.8630   -0.5380 C.ar    1  LGD1        0.0414
     39  C39       -1.5870    0.1640   -3.1710 C.3     1  LGD1        0.2526
@<TRIPOS>BOND
     1    33     7    1
     2    33    29    1
     3     5    29    1
     4     5    25    1
     5    10    25   ar
     6    10    26   ar
     7    36    11   ar
     8    36    38   ar
     9    11    28   ar
    10    25    24   ar
    11    38    37   ar
    12    34    31   ar
    13    34    35   ar
    14    28    26    1
    15    28    12   ar
    16    26     9   ar
    17    31    27   ar
    18    37    12   ar
    19    24     4    1
    20    24    23   ar
    21     4    27    1
    22    27    30   ar
    23    35    32   ar
    24    15    13    1
    25     9    23   ar
    26    23     8    1
    27    30    32   ar
    28    30     6    1
    29     6    39    1
    30     8     1    1
    31    18    14   ar
    32    18    21   ar
    33    13    14    1
    34    13    17    1
    35    13    16    1
    36    14    19   ar
    37    21    20   ar
    38    20     1    1
    39    20    22   ar
    40    19    22   ar
    41     1     2    2
    42     1     3    2
@<TRIPOS>MOLECULE
108002
 38 42 0 0 0
SMALL
GASTEIGER

@<TRIPOS>ATOM
      1 O          -1.0681    1.8725   -3.3416 O.co2   1  LIG11      -0.5495
      2 O          -2.6187    2.9884   -2.1157 O.co2   1  LIG11      -0.5495
      3 O           0.9052   -4.4794   -0.7305 O.3     1  LIG11      -0.4920
      4 O          -3.1132   -1.5394    0.5649 O.3     1  LIG11      -0.4858
      5 O          -0.8229    1.8049    4.3089 O.3     1  LIG11      -0.4526
      6 O          -0.3005    4.1497    4.1041 O.3     1  LIG11      -0.4526
      7 O          -7.3232   -2.2356   -1.8644 O.3     1  LIG11      -0.4950
      8 O          -2.2506   -3.9084    2.5271 O.co2   1  LIG11      -0.5463
      9 O          -2.2600   -1.9131    3.6352 O.co2   1  LIG11      -0.5463
     10 C          -1.7486    0.9662   -1.2416 C.3     1  LIG11       0.0203
     11 C          -1.9001   -0.4380   -1.8666 C.3     1  LIG11       0.0218
     12 C          -0.3364    1.0420   -0.6161 C.3     1  LIG11       0.0184
     13 C          -0.8021   -1.2344   -1.2099 C.ar    1  LIG11      -0.0320
     14 C           0.0648   -0.4096   -0.4915 C.ar    1  LIG11      -0.0353
     15 C          -0.3187    1.8695    0.6628 C.ar    1  LIG11      -0.0356
     16 C          -3.3182   -0.9921   -1.7505 C.ar    1  LIG11       0.0026
     17 C          -1.8202    2.0332   -2.3353 C.2     1  LIG11       0.0466
     18 C          -0.5679   -2.5998   -1.3290 C.ar    1  LIG11      -0.0159
     19 C           1.1723   -0.9512    0.1467 C.ar    1  LIG11      -0.0542
     20 C           0.5434   -3.1563   -0.6943 C.ar    1  LIG11       0.1208
     21 C          -3.9060   -1.4657   -0.5590 C.ar    1  LIG11       0.1283
     22 C          -0.6236    1.3274    1.9244 C.ar    1  LIG11      -0.0124
     23 C          -0.0338    3.2551    0.5592 C.ar    1  LIG11      -0.0543
     24 C           1.3951   -2.3298    0.0559 C.ar    1  LIG11      -0.0196
     25 C          -4.0999   -0.9667   -2.9231 C.ar    1  LIG11      -0.0510
     26 C          -0.5829    2.1664    3.0197 C.ar    1  LIG11       0.1665
     27 C          -0.0101    4.0822    1.6862 C.ar    1  LIG11      -0.0159
     28 C          -5.2616   -1.8474   -0.5678 C.ar    1  LIG11       0.0221
     29 C          -5.4245   -1.4056   -2.9236 C.ar    1  LIG11      -0.0194
     30 C          -0.2821    3.5046    2.9045 C.ar    1  LIG11       0.1662
     31 C          -6.0147   -1.8422   -1.7452 C.ar    1  LIG11       0.1236
     32 C           0.2396   -5.3130   -1.6777 C.3     1  LIG11       0.0893
     33 C          -0.6755    3.0640    4.9781 C.3     1  LIG11       0.2332
     34 C          -3.6728   -2.1757    1.7319 C.3     1  LIG11       0.1287
     35 C          -1.0299   -5.9330   -1.0971 C.3     1  LIG11      -0.0215
     36 C          -2.5807   -2.6938    2.6898 C.2     1  LIG11       0.0789
     37 C          -7.9438   -2.7280   -0.6839 C.3     1  LIG11       0.0788
     38 C          -1.7702   -6.7515   -2.1418 C.3     1  LIG11      -0.0622
@<TRIPOS>BOND
     1     1    17   ar
     2     2    17   ar
     3     3    20    1
     4     3    32    1
     5     4    21    1
     6     4    34    1
     7     5    26    1
     8     5    33    1
     9     6    30    1
    10     6    33    1
    11     7    31    1
    12     7    37    1
    13     8    36   ar
    14     9    36   ar
    15    10    11    1
    16    10    12    1
    17    10    17    1
    18    11    13    1
    19    11    16    1
    20    12    14    1
    21    12    15    1
    22    13    14   ar
    23    13    18   ar
    24    14    19   ar
    25    15    22   ar
    26    15    23   ar
    27    16    21   ar
    28    16    25   ar
    29    18    20   ar
    30    19    24   ar
    31    20    24   ar
    32    21    28   ar
    33    22    26   ar
    34    23    27   ar
    35    25    29   ar
    36    26    30   ar
    37    27    30   ar
    38    28    31   ar
    39    29    31   ar
    40    32    35    1
    41    34    36    1
    42    35    38    1
