@<TRIPOS>MOLECULE
BOSENTAN_50CONFORMERS.pdb
 39 42 0 0 0
SMALL
GASTEIGER

@<TRIPOS>ATOM
      1  S1        -2.5440    0.8820    1.3810 S.O2    1  LGD1        0.0943
      2  O2        -3.0580    1.0090   -0.0300 O.2     1  LGD1       -0.1483
      3  O3        -3.4510    1.0070    2.5580 O.2     1  LGD1       -0.1483
      4  O4        -2.5030   -2.6290   -0.5280 O.3     1  LGD1       -0.4427
      5  O5        -0.4920   -3.8130   -2.0760 O.3     1  LGD1       -0.4552
      6  O6        -2.0670   -1.1970   -2.9360 O.3     1  LGD1       -0.4684
      7  O7         0.0690   -6.9230   -2.9370 O.3     1  LGD1       -0.2162
      8  N8        -1.8600   -0.6450    1.4930 N.pl3   1  LGD1       -0.0737
      9  N9         0.4100   -0.5870    0.4360 N.ar    1  LGD1       -0.2027
     10  N10        0.9660   -2.0980   -1.4610 N.ar    1  LGD1       -0.1866
     11  N11        2.6500    0.7480   -1.3020 N.ar    1  LGD1       -0.2224
     12  N12        3.5170   -0.9850    0.1730 N.ar    1  LGD1       -0.2224
     13  C13        2.2420    4.4520    2.1170 C.3     1  LGD1        0.0189
     14  C14        1.0250    3.4900    1.9820 C.ar    1  LGD1       -0.0227
     15  C15        2.0010    5.4460    3.2800 C.3     1  LGD1        0.0044
     16  C16        2.6730    5.2910    0.8990 C.3     1  LGD1        0.0044
     17  C17        3.5210    3.6960    2.5530 C.3     1  LGD1        0.0044
     18  C18        0.6010    2.6040    3.0120 C.ar    1  LGD1       -0.0029
     19  C19        0.3390    3.5290    0.7610 C.ar    1  LGD1       -0.0029
     20  C20       -1.2400    1.9560    1.6370 C.ar    1  LGD1        0.1271
     21  C21       -0.4570    1.7090    2.7450 C.ar    1  LGD1        0.0199
     22  C22       -0.8450    2.7820    0.5840 C.ar    1  LGD1        0.0199
     23  C23       -0.8540   -1.1040    0.5510 C.ar    1  LGD1        0.2125
     24  C24       -1.1750   -2.2000   -0.3310 C.ar    1  LGD1        0.2327
     25  C25       -0.1850   -2.7510   -1.2360 C.ar    1  LGD1        0.2651
     26  C26        1.1720   -1.0790   -0.5680 C.ar    1  LGD1        0.2028
     27  C27       -3.4940   -1.9040   -1.1530 C.ar    1  LGD1        0.1793
     28  C28        2.5770   -0.4000   -0.6350 C.ar    1  LGD1        0.1990
     29  C29       -0.5060   -5.0230   -1.3510 C.3     1  LGD1        0.2426
     30  C30       -3.3220   -1.2950   -2.4140 C.ar    1  LGD1        0.1730
     31  C31       -4.8550   -2.2290   -0.7620 C.ar    1  LGD1        0.0406
     32  C32       -4.4180   -1.0620   -3.2580 C.ar    1  LGD1        0.0401
     33  C33       -0.9950   -6.1940   -2.2700 C.3     1  LGD1        0.2292
     34  C34       -5.9160   -1.6500   -1.4840 C.ar    1  LGD1        0.0033
     35  C35       -5.6950   -1.1630   -2.7440 C.ar    1  LGD1        0.0033
     36  C36        3.8630    1.3500   -1.3730 C.ar    1  LGD1        0.1023
     37  C37        4.7310   -0.3060    0.2120 C.ar    1  LGD1        0.1023
     38  C38        4.8960    0.8630   -0.5380 C.ar    1  LGD1        0.0414
     39  C39       -1.5870    0.1640   -3.1710 C.3     1  LGD1        0.2526
@<TRIPOS>BOND
     1    33     7    1
     2    33    29    1
     3     5    29    1
     4     5    25    1
     5    10    25   ar
     6    10    26   ar
     7    36    11   ar
     8    36    38   ar
     9    11    28   ar
    10    25    24   ar
    11    38    37   ar
    12    34    31   ar
    13    34    35   ar
    14    28    26    1
    15    28    12   ar
    16    26     9   ar
    17    31    27   ar
    18    37    12   ar
    19    24     4    1
    20    24    23   ar
    21     4    27    1
    22    27    30   ar
    23    35    32   ar
    24    15    13    1
    25     9    23   ar
    26    23     8    1
    27    30    32   ar
    28    30     6    1
    29     6    39    1
    30     8     1    1
    31    18    14   ar
    32    18    21   ar
    33    13    14    1
    34    13    17    1
    35    13    16    1
    36    14    19   ar
    37    21    20   ar
    38    20     1    1
    39    20    22   ar
    40    19    22   ar
    41     1     2    2
    42     1     3    2
@<TRIPOS>MOLECULE
178103
 37 41 0 0 0
SMALL
GASTEIGER

@<TRIPOS>ATOM
      1 O          -0.7094    1.8538   -3.4486 O.co2   1  LIG11      -0.5495
      2 O          -2.2694    3.0777   -2.3389 O.co2   1  LIG11      -0.5495
      3 O           0.3409   -4.6363   -0.4177 O.3     1  LIG11      -0.4920
      4 O          -3.6476    0.2046   -4.1666 O.3     1  LIG11      -0.4893
      5 O          -0.6163    1.7968    4.2515 O.3     1  LIG11      -0.4526
      6 O          -0.3841    4.1834    3.9721 O.3     1  LIG11      -0.4526
      7 O          -7.3621   -2.0160   -2.1918 O.3     1  LIG11      -0.4950
      8 O          -4.4801    3.0013   -6.3700 O.3     1  LIG11      -0.3917
      9 C          -1.6576    0.9888   -1.4393 C.3     1  LIG11       0.0203
     10 C          -1.8728   -0.3981   -2.0811 C.3     1  LIG11       0.0218
     11 C          -0.3015    0.9768   -0.6938 C.3     1  LIG11       0.0184
     12 C          -0.9172   -1.2707   -1.2885 C.ar    1  LIG11      -0.0320
     13 C          -0.0384   -0.5026   -0.5222 C.ar    1  LIG11      -0.0353
     14 C          -3.3434   -0.8229   -2.0553 C.ar    1  LIG11       0.0025
     15 C          -0.3457    1.8275    0.5764 C.ar    1  LIG11      -0.0356
     16 C          -1.5403    2.0623   -2.5198 C.2     1  LIG11       0.0466
     17 C          -0.8114   -2.6615   -1.3252 C.ar    1  LIG11      -0.0159
     18 C           0.9754   -1.1142    0.2033 C.ar    1  LIG11      -0.0542
     19 C          -4.1961   -0.4951   -3.1256 C.ar    1  LIG11       0.1278
     20 C           0.1737   -3.2877   -0.5614 C.ar    1  LIG11       0.1208
     21 C          -0.5175    1.2937    1.8657 C.ar    1  LIG11      -0.0124
     22 C           1.0572   -2.5088    0.2025 C.ar    1  LIG11      -0.0196
     23 C          -0.2306    3.2349    0.4357 C.ar    1  LIG11      -0.0543
     24 C          -3.8974   -1.5067   -0.9582 C.ar    1  LIG11      -0.0510
     25 C          -0.5061    2.1581    2.9431 C.ar    1  LIG11       0.1665
     26 C          -0.2479    4.0899    1.5423 C.ar    1  LIG11      -0.0159
     27 C          -5.5291   -0.9251   -3.1263 C.ar    1  LIG11       0.0221
     28 C          -5.2334   -1.9256   -0.9602 C.ar    1  LIG11      -0.0194
     29 C          -0.3725    3.5175    2.7859 C.ar    1  LIG11       0.1662
     30 C          -6.0506   -1.6484   -2.0525 C.ar    1  LIG11       0.1236
     31 C          -0.0723   -5.4924   -1.4805 C.3     1  LIG11       0.0893
     32 C          -0.5088    3.0826    4.8933 C.3     1  LIG11       0.2332
     33 C          -4.5167    1.1246   -4.8312 C.3     1  LIG11       0.1126
     34 C          -0.5874   -6.7978   -0.8761 C.3     1  LIG11      -0.0215
     35 C          -3.6900    2.2485   -5.4437 C.3     1  LIG11       0.0783
     36 C          -7.9105   -2.8274   -1.1628 C.3     1  LIG11       0.0788
     37 C          -1.8594   -6.5859   -0.0651 C.3     1  LIG11      -0.0622
@<TRIPOS>BOND
     1     1    16   ar
     2     2    16   ar
     3     3    20    1
     4     3    31    1
     5     4    19    1
     6     4    33    1
     7     5    25    1
     8     5    32    1
     9     6    29    1
    10     6    32    1
    11     7    30    1
    12     7    36    1
    13     8    35    1
    14     9    10    1
    15     9    11    1
    16     9    16    1
    17    10    12    1
    18    10    14    1
    19    11    13    1
    20    11    15    1
    21    12    13   ar
    22    12    17   ar
    23    13    18   ar
    24    14    19   ar
    25    14    24   ar
    26    15    21   ar
    27    15    23   ar
    28    17    20   ar
    29    18    22   ar
    30    19    27   ar
    31    20    22   ar
    32    21    25   ar
    33    23    26   ar
    34    24    28   ar
    35    25    29   ar
    36    26    29   ar
    37    27    30   ar
    38    28    30   ar
    39    31    34    1
    40    33    35    1
    41    34    37    1
