@<TRIPOS>MOLECULE
BOSENTAN_50CONFORMERS.pdb
 39 42 0 0 0
SMALL
GASTEIGER

@<TRIPOS>ATOM
      1  S1        -1.5560   -0.1540    3.0420 S.O2    1  LGD1        0.0943
      2  O2        -0.3870    0.7390    3.1200 O.2     1  LGD1       -0.1483
      3  O3        -2.8790    0.3480    3.5100 O.2     1  LGD1       -0.1483
      4  O4        -2.4520   -2.8760   -0.3820 O.3     1  LGD1       -0.4427
      5  O5        -0.5300   -3.7540   -2.0620 O.3     1  LGD1       -0.4552
      6  O6        -1.9710   -4.5810    1.8700 O.3     1  LGD1       -0.4684
      7  O7        -1.3390   -6.6760   -2.6180 O.3     1  LGD1       -0.2162
      8  N8        -1.7750   -0.5880    1.4140 N.pl3   1  LGD1       -0.0737
      9  N9         0.3520   -0.6360    0.4360 N.ar    1  LGD1       -0.2027
     10  N10        0.9590   -2.0830   -1.3900 N.ar    1  LGD1       -0.1866
     11  N11        3.4060   -0.7050   -1.6780 N.ar    1  LGD1       -0.2224
     12  N12        2.4900    1.0070   -0.1720 N.ar    1  LGD1       -0.2224
     13  C13        0.1740   -5.4030    5.5970 C.3     1  LGD1        0.0189
     14  C14       -0.1680   -3.9810    5.1230 C.ar    1  LGD1       -0.0227
     15  C15        1.5190   -6.0480    5.2330 C.3     1  LGD1        0.0044
     16  C16       -0.9630   -6.4150    5.2580 C.3     1  LGD1        0.0044
     17  C17        0.2000   -5.5080    7.1670 C.3     1  LGD1        0.0044
     18  C18       -1.5290   -3.5390    5.1240 C.ar    1  LGD1       -0.0029
     19  C19        0.7990   -3.1630    4.4440 C.ar    1  LGD1       -0.0029
     20  C20       -0.9690   -1.5690    3.8710 C.ar    1  LGD1        0.1271
     21  C21       -1.8880   -2.3030    4.5850 C.ar    1  LGD1        0.0199
     22  C22        0.3720   -1.9940    3.7970 C.ar    1  LGD1        0.0199
     23  C23       -0.8560   -1.2330    0.5710 C.ar    1  LGD1        0.2125
     24  C24       -1.1990   -2.2330   -0.3540 C.ar    1  LGD1        0.2327
     25  C25       -0.1520   -2.7370   -1.1920 C.ar    1  LGD1        0.2651
     26  C26        1.1820   -1.0140   -0.6150 C.ar    1  LGD1        0.2028
     27  C27       -3.2960   -2.9720    0.7350 C.ar    1  LGD1        0.1793
     28  C28        2.4120   -0.1510   -0.8880 C.ar    1  LGD1        0.1990
     29  C29        0.2180   -4.9390   -1.6790 C.3     1  LGD1        0.2426
     30  C30       -3.0580   -3.7770    1.8300 C.ar    1  LGD1        0.1730
     31  C31       -4.4750   -2.2080    0.6210 C.ar    1  LGD1        0.0406
     32  C32       -3.9800   -3.7340    2.8740 C.ar    1  LGD1        0.0401
     33  C33       -0.0190   -6.1070   -2.6700 C.3     1  LGD1        0.2292
     34  C34       -5.4090   -2.2290    1.6530 C.ar    1  LGD1        0.0033
     35  C35       -5.0790   -2.9140    2.8110 C.ar    1  LGD1        0.0033
     36  C36        4.6270   -0.0440   -1.6350 C.ar    1  LGD1        0.1023
     37  C37        3.6800    1.7350   -0.2470 C.ar    1  LGD1        0.1023
     38  C38        4.6980    1.1140   -0.9460 C.ar    1  LGD1        0.0414
     39  C39       -2.3070   -5.9040    1.3650 C.3     1  LGD1        0.2526
@<TRIPOS>BOND
     1    33     7    1
     2    33    29    1
     3     5    29    1
     4     5    25    1
     5    10    25   ar
     6    10    26   ar
     7    36    11   ar
     8    36    38   ar
     9    11    28   ar
    10    25    24   ar
    11    38    37   ar
    12    34    31   ar
    13    34    35   ar
    14    28    26    1
    15    28    12   ar
    16    26     9   ar
    17    31    27   ar
    18    37    12   ar
    19    24     4    1
    20    24    23   ar
    21     4    27    1
    22    27    30   ar
    23    35    32   ar
    24    15    13    1
    25     9    23   ar
    26    23     8    1
    27    30    32   ar
    28    30     6    1
    29     6    39    1
    30     8     1    1
    31    18    14   ar
    32    18    21   ar
    33    13    14    1
    34    13    17    1
    35    13    16    1
    36    14    19   ar
    37    21    20   ar
    38    20     1    1
    39    20    22   ar
    40    19    22   ar
    41     1     2    2
    42     1     3    2
@<TRIPOS>MOLECULE
9843631
 28 31 0 0 0
SMALL
GASTEIGER

@<TRIPOS>ATOM
      1 S          -3.2895   -4.7786    5.5804 S.O2    1  LIG11       0.0752
      2 O          -3.7137   -3.4905    8.9861 O.2     1  LIG11      -0.3377
      3 O          -2.6808   -5.8055    6.4021 O.2     1  LIG11      -0.1499
      4 O          -4.2002   -5.1405    4.5186 O.2     1  LIG11      -0.1499
      5 O          -7.8338   -2.6968    0.7151 O.2     1  LIG11      -0.4436
      6 N          -4.0362   -3.6156    6.5820 N.pl3   1  LIG11      -0.1831
      7 N          -4.1545   -4.1044   10.1385 N.ar    1  LIG11      -0.0810
      8 N          -6.5526   -2.5226   -1.1372 N.ar    1  LIG11      -0.2175
      9 C          -1.9577   -3.7649    4.9350 C.ar    1  LIG11       0.1162
     10 C          -2.0853   -2.9294    3.8067 C.ar    1  LIG11       0.0087
     11 C          -3.2573   -2.8379    2.9148 C.ar    1  LIG11      -0.0160
     12 C          -0.7549   -3.8037    5.6724 C.ar    1  LIG11      -0.0345
     13 C          -4.2998   -4.0666    7.9029 C.ar    1  LIG11       0.2399
     14 C          -0.9703   -2.1190    3.4866 C.ar    1  LIG11      -0.0521
     15 C          -5.1952   -5.0258    8.3216 C.ar    1  LIG11       0.0350
     16 C          -4.5135   -2.3949    3.3517 C.ar    1  LIG11      -0.0533
     17 C          -3.1169   -3.1522    1.5509 C.ar    1  LIG11      -0.0533
     18 C           0.3251   -3.0010    5.3174 C.ar    1  LIG11      -0.0599
     19 C           0.2140   -2.1502    4.2279 C.ar    1  LIG11      -0.0611
     20 C          -5.4572   -2.6599    1.1188 C.ar    1  LIG11       0.0369
     21 C          -5.0403   -5.0236    9.7388 C.ar    1  LIG11       0.0854
     22 C          -5.6043   -2.3303    2.4720 C.ar    1  LIG11      -0.0489
     23 C          -4.1942   -3.0512    0.6644 C.ar    1  LIG11      -0.0489
     24 C          -6.1349   -5.8479    7.5264 C.3     1  LIG11      -0.0330
     25 C          -5.7434   -5.8565   10.7428 C.3     1  LIG11      -0.0188
     26 C          -6.5730   -2.6054    0.1811 C.ar    1  LIG11       0.2271
     27 C          -8.6568   -2.6767   -0.3701 C.ar    1  LIG11       0.1125
     28 C          -7.8773   -2.5554   -1.4914 C.ar    1  LIG11       0.0663
@<TRIPOS>BOND
     1     1     3    2
     2     1     4    2
     3     1     6    1
     4     1     9    1
     5     2     7   ar
     6     2    13   ar
     7     5    26   ar
     8     5    27   ar
     9     6    13    1
    10     7    21   ar
    11     8    26   ar
    12     8    28   ar
    13     9    10   ar
    14     9    12   ar
    15    10    11    1
    16    10    14   ar
    17    11    16   ar
    18    11    17   ar
    19    12    18   ar
    20    13    15   ar
    21    14    19   ar
    22    15    21   ar
    23    15    24    1
    24    16    22   ar
    25    17    23   ar
    26    18    19   ar
    27    20    22   ar
    28    20    23   ar
    29    20    26    1
    30    21    25    1
    31    27    28   ar
