@<TRIPOS>MOLECULE
BOSENTAN_50CONFORMERS.pdb
 39 42 0 0 0
SMALL
GASTEIGER

@<TRIPOS>ATOM
      1  S1        -1.5470    0.3490    2.7160 S.O2    1  LGD1        0.0943
      2  O2        -0.7530    1.4980    2.2170 O.2     1  LGD1       -0.1483
      3  O3        -2.8600    0.5760    3.4280 O.2     1  LGD1       -0.1483
      4  O4        -2.2520   -2.9670   -0.1090 O.3     1  LGD1       -0.4427
      5  O5        -0.5680   -3.7520   -2.0580 O.3     1  LGD1       -0.4552
      6  O6        -0.3510   -4.4310    1.3380 O.3     1  LGD1       -0.4684
      7  O7         0.6390   -6.3300   -1.1040 O.3     1  LGD1       -0.2162
      8  N8        -1.8990   -0.6020    1.4090 N.pl3   1  LGD1       -0.0737
      9  N9         0.3940   -0.6390    0.4710 N.ar    1  LGD1       -0.2027
     10  N10        0.9380   -2.0520   -1.4960 N.ar    1  LGD1       -0.1866
     11  N11        3.7330   -1.1540   -1.0430 N.ar    1  LGD1       -0.2224
     12  N12        2.6710    0.8370   -0.2040 N.ar    1  LGD1       -0.2224
     13  C13        2.0030   -3.0990    6.2740 C.3     1  LGD1        0.0189
     14  C14        1.0980   -2.2740    5.3200 C.ar    1  LGD1       -0.0227
     15  C15        2.8100   -2.2530    7.1700 C.3     1  LGD1        0.0044
     16  C16        3.0940   -3.8700    5.4960 C.3     1  LGD1        0.0044
     17  C17        1.2780   -4.1180    7.2370 C.3     1  LGD1        0.0044
     18  C18        1.6550   -1.3310    4.4200 C.ar    1  LGD1       -0.0029
     19  C19       -0.3150   -2.4100    5.3350 C.ar    1  LGD1       -0.0029
     20  C20       -0.5430   -0.6850    3.7060 C.ar    1  LGD1        0.1271
     21  C21        0.8170   -0.4950    3.6650 C.ar    1  LGD1        0.0199
     22  C22       -1.1650   -1.6490    4.5240 C.ar    1  LGD1        0.0199
     23  C23       -0.8540   -1.1320    0.5580 C.ar    1  LGD1        0.2125
     24  C24       -1.0730   -2.2720   -0.2990 C.ar    1  LGD1        0.2327
     25  C25       -0.1680   -2.7770   -1.2000 C.ar    1  LGD1        0.2651
     26  C26        1.2130   -1.0500   -0.5770 C.ar    1  LGD1        0.2028
     27  C27       -2.5840   -3.6540    1.0820 C.ar    1  LGD1        0.1793
     28  C28        2.6530   -0.4390   -0.6690 C.ar    1  LGD1        0.1990
     29  C29        0.2780   -4.5800   -2.8690 C.3     1  LGD1        0.2426
     30  C30       -1.6080   -4.3260    1.8340 C.ar    1  LGD1        0.1730
     31  C31       -3.9050   -3.7190    1.4640 C.ar    1  LGD1        0.0406
     32  C32       -1.9550   -5.0070    2.9750 C.ar    1  LGD1        0.0401
     33  C33        1.2690   -5.3310   -1.9830 C.3     1  LGD1        0.2292
     34  C34       -4.3340   -4.4310    2.5710 C.ar    1  LGD1        0.0033
     35  C35       -3.3070   -5.0480    3.3860 C.ar    1  LGD1        0.0033
     36  C36        4.9310   -0.5370   -0.9630 C.ar    1  LGD1        0.1023
     37  C37        3.8730    1.5130   -0.2050 C.ar    1  LGD1        0.1023
     38  C38        4.9600    0.8420   -0.7410 C.ar    1  LGD1        0.0414
     39  C39        0.7180   -3.8910    2.1960 C.3     1  LGD1        0.2526
@<TRIPOS>BOND
     1    33     7    1
     2    33    29    1
     3     5    29    1
     4     5    25    1
     5    10    25   ar
     6    10    26   ar
     7    36    11   ar
     8    36    38   ar
     9    11    28   ar
    10    25    24   ar
    11    38    37   ar
    12    34    31   ar
    13    34    35   ar
    14    28    26    1
    15    28    12   ar
    16    26     9   ar
    17    31    27   ar
    18    37    12   ar
    19    24     4    1
    20    24    23   ar
    21     4    27    1
    22    27    30   ar
    23    35    32   ar
    24    15    13    1
    25     9    23   ar
    26    23     8    1
    27    30    32   ar
    28    30     6    1
    29     6    39    1
    30     8     1    1
    31    18    14   ar
    32    18    21   ar
    33    13    14    1
    34    13    17    1
    35    13    16    1
    36    14    19   ar
    37    21    20   ar
    38    20     1    1
    39    20    22   ar
    40    19    22   ar
    41     1     2    2
    42     1     3    2
@<TRIPOS>MOLECULE
46174111
 29 32 0 0 0
SMALL
GASTEIGER

@<TRIPOS>ATOM
      1 CL         -5.8566    0.2057    0.7367 Cl      1  LIG11      -0.0762
      2 S          -5.7413   -2.7027    3.2640 S.O2    1  LIG11       0.0758
      3 S          -2.0180   -4.7158    2.7722 S.2     1  LIG11      -0.0918
      4 O          -0.0725    0.9038    3.0439 O.3     1  LIG11      -0.4526
      5 O           2.2613    0.5865    3.5615 O.3     1  LIG11      -0.4526
      6 O          -3.6822   -2.3622    5.4415 O.2     1  LIG11      -0.2911
      7 O          -6.2322   -3.3676    4.4497 O.2     1  LIG11      -0.1499
      8 O          -6.5195   -2.6509    2.0464 O.2     1  LIG11      -0.1499
      9 O          -6.8745    0.4456    4.4812 O.2     1  LIG11      -0.3364
     10 N          -5.1926   -1.1576    3.6925 N.pl3   1  LIG11      -0.1821
     11 N          -7.7294    1.3995    3.9519 N.ar    1  LIG11      -0.0798
     12 C          -0.4267   -2.2334    4.9588 C.ar    1  LIG11      -0.0333
     13 C          -1.4693   -3.2160    5.4706 C.3     1  LIG11       0.0366
     14 C           0.9530   -2.4037    5.2804 C.ar    1  LIG11      -0.0432
     15 C          -4.3352   -3.6355    2.8280 C.ar    1  LIG11       0.1261
     16 C          -3.1683   -3.7208    3.5767 C.ar    1  LIG11       0.0814
     17 C          -0.8151   -1.1033    4.2064 C.ar    1  LIG11      -0.0123
     18 C          -2.8598   -3.0790    4.8593 C.2     1  LIG11       0.1759
     19 C           0.1518   -0.2196    3.7764 C.ar    1  LIG11       0.1665
     20 C           1.4764   -0.3995    4.0701 C.ar    1  LIG11       0.1665
     21 C           1.9062   -1.4724    4.8167 C.ar    1  LIG11      -0.0130
     22 C           1.4775   -3.5353    6.1273 C.3     1  LIG11      -0.0393
     23 C          -4.2746   -4.3967    1.6172 C.ar    1  LIG11      -0.0273
     24 C           1.2705    1.4153    2.9182 C.3     1  LIG11       0.2332
     25 C          -3.0652   -5.0303    1.4657 C.ar    1  LIG11      -0.0217
     26 C          -6.1760   -0.1523    3.4774 C.ar    1  LIG11       0.2554
     27 C          -6.5073    0.4507    2.2852 C.ar    1  LIG11       0.1262
     28 C          -7.5010    1.3955    2.6311 C.ar    1  LIG11       0.1009
     29 C          -8.2337    2.3244    1.7404 C.3     1  LIG11      -0.0176
@<TRIPOS>BOND
     1     1    27    1
     2     2    10    1
     3     2    15    1
     4     2     8    2
     5     2     7    2
     6     3    16   ar
     7     3    25   ar
     8     4    24    1
     9     4    19    1
    10     5    20    1
    11     5    24    1
    12     6    18    2
    13     9    11   ar
    14     9    26   ar
    15    10    26    1
    16    11    28   ar
    17    12    17   ar
    18    12    14   ar
    19    13    18    1
    20    13    12    1
    21    14    21   ar
    22    14    22    1
    23    15    23   ar
    24    15    16   ar
    25    16    18    1
    26    17    19   ar
    27    19    20   ar
    28    20    21   ar
    29    23    25   ar
    30    26    27   ar
    31    27    28   ar
    32    28    29    1
