@<TRIPOS>MOLECULE
BOSENTAN_50CONFORMERS.pdb
 39 42 0 0 0
SMALL
GASTEIGER

@<TRIPOS>ATOM
      1  S1        -2.8330    0.4630    1.3060 S.O2    1  LGD1        0.0943
      2  O2        -2.8970    0.6600   -0.1560 O.2     1  LGD1       -0.1483
      3  O3        -4.0250    0.0070    2.1230 O.2     1  LGD1       -0.1483
      4  O4        -2.4940   -2.8430   -0.3110 O.3     1  LGD1       -0.4427
      5  O5        -0.4750   -3.7460   -2.0890 O.3     1  LGD1       -0.4552
      6  O6        -5.0250   -3.8970   -1.0950 O.3     1  LGD1       -0.4684
      7  O7         0.0950   -4.8430   -4.6130 O.3     1  LGD1       -0.2162
      8  N8        -1.7380   -0.7420    1.5350 N.pl3   1  LGD1       -0.0737
      9  N9         0.3450   -0.4420    0.3460 N.ar    1  LGD1       -0.2027
     10  N10        0.9770   -2.2050   -1.3410 N.ar    1  LGD1       -0.1866
     11  N11        2.9920   -0.1140   -1.9100 N.ar    1  LGD1       -0.2224
     12  N12        3.2460   -0.4140    0.5070 N.ar    1  LGD1       -0.2224
     13  C13       -0.0050    5.2100    3.8830 C.3     1  LGD1        0.0189
     14  C14       -0.8520    4.0380    3.3140 C.ar    1  LGD1       -0.0227
     15  C15       -0.9230    6.4780    4.0310 C.3     1  LGD1        0.0044
     16  C16        1.2280    5.5730    2.9890 C.3     1  LGD1        0.0044
     17  C17        0.5030    4.9780    5.2980 C.3     1  LGD1        0.0044
     18  C18       -1.1500    4.0810    1.9220 C.ar    1  LGD1       -0.0029
     19  C19       -1.1800    2.8960    3.9870 C.ar    1  LGD1       -0.0029
     20  C20       -2.1320    1.8950    2.0580 C.ar    1  LGD1        0.1271
     21  C21       -1.7290    2.9910    1.3080 C.ar    1  LGD1        0.0199
     22  C22       -1.8610    1.8490    3.4170 C.ar    1  LGD1        0.0199
     23  C23       -0.9000   -1.0900    0.4490 C.ar    1  LGD1        0.2125
     24  C24       -1.1740   -2.2400   -0.3150 C.ar    1  LGD1        0.2327
     25  C25       -0.2500   -2.6920   -1.2520 C.ar    1  LGD1        0.2651
     26  C26        1.1970   -1.1200   -0.5250 C.ar    1  LGD1        0.2028
     27  C27       -2.8120   -4.2490   -0.1050 C.ar    1  LGD1        0.1793
     28  C28        2.5730   -0.5030   -0.6670 C.ar    1  LGD1        0.1990
     29  C29       -1.2610   -3.4600   -3.2650 C.3     1  LGD1        0.2426
     30  C30       -4.0870   -4.7330   -0.5230 C.ar    1  LGD1        0.1730
     31  C31       -1.9500   -5.1370    0.5370 C.ar    1  LGD1        0.0406
     32  C32       -4.4680   -6.0340   -0.3980 C.ar    1  LGD1        0.0401
     33  C33       -1.1930   -4.6490   -4.1410 C.3     1  LGD1        0.2292
     34  C34       -2.3370   -6.4640    0.6780 C.ar    1  LGD1        0.0033
     35  C35       -3.5800   -6.9030    0.1710 C.ar    1  LGD1        0.0033
     36  C36        4.1530    0.5470   -1.9870 C.ar    1  LGD1        0.1023
     37  C37        4.4350    0.1730    0.4150 C.ar    1  LGD1        0.1023
     38  C38        4.9150    0.5790   -0.8490 C.ar    1  LGD1        0.0414
     39  C39       -5.5650   -2.9760   -0.0860 C.3     1  LGD1        0.2526
@<TRIPOS>BOND
     1    33     7    1
     2    33    29    1
     3     5    29    1
     4     5    25    1
     5    10    25   ar
     6    10    26   ar
     7    36    11   ar
     8    36    38   ar
     9    11    28   ar
    10    25    24   ar
    11    38    37   ar
    12    34    31   ar
    13    34    35   ar
    14    28    26    1
    15    28    12   ar
    16    26     9   ar
    17    31    27   ar
    18    37    12   ar
    19    24     4    1
    20    24    23   ar
    21     4    27    1
    22    27    30   ar
    23    35    32   ar
    24    15    13    1
    25     9    23   ar
    26    23     8    1
    27    30    32   ar
    28    30     6    1
    29     6    39    1
    30     8     1    1
    31    18    14   ar
    32    18    21   ar
    33    13    14    1
    34    13    17    1
    35    13    16    1
    36    14    19   ar
    37    21    20   ar
    38    20     1    1
    39    20    22   ar
    40    19    22   ar
    41     1     2    2
    42     1     3    2
@<TRIPOS>MOLECULE
9957262
 35 38 0 0 0
SMALL
GASTEIGER

@<TRIPOS>ATOM
      1 S          -2.8488    0.2778   -1.9067 S.O2    1  LIG11       0.0668
      2 O          -2.5059   -3.1328   -0.8144 O.3     1  LIG11      -0.4435
      3 O          -0.8766   -3.5020    1.5196 O.3     1  LIG11      -0.4771
      4 O          -3.2633    1.0080   -3.0878 O.2     1  LIG11      -0.1505
      5 O          -3.8505   -0.4420   -1.1419 O.2     1  LIG11      -0.1505
      6 O          -0.4612   -5.0403   -1.4197 O.3     1  LIG11      -0.4914
      7 N          -1.7641   -0.9092   -2.4506 N.pl3   1  LIG11      -0.1968
      8 N           0.2285   -0.8109   -1.3420 N.ar    1  LIG11      -0.2044
      9 N           0.7259   -2.0635    0.6078 N.ar    1  LIG11      -0.1867
     10 N           2.5534    0.6884   -0.7565 N.ar    1  LIG11      -0.2331
     11 N           3.4526   -1.3647    0.0841 N.ar    1  LIG11      -0.2331
     12 C          -0.9365   -1.4615   -1.4245 C.ar    1  LIG11       0.1883
     13 C          -1.3394   -2.4613   -0.5638 C.ar    1  LIG11       0.2307
     14 C          -0.4787   -2.6567    0.5028 C.ar    1  LIG11       0.2639
     15 C          -2.5886   -4.4728   -0.4820 C.ar    1  LIG11       0.1702
     16 C          -2.0113    1.3687   -0.8428 C.2     1  LIG11       0.0729
     17 C           1.0605   -1.1873   -0.3580 C.ar    1  LIG11       0.2027
     18 C          -1.5811   -5.4253   -0.7239 C.ar    1  LIG11       0.1621
     19 C          -2.6989    1.9519    0.1530 C.2     1  LIG11      -0.0353
     20 C          -2.0494    2.7955    1.1553 C.ar    1  LIG11      -0.0237
     21 C          -3.7809   -4.8596    0.1380 C.ar    1  LIG11      -0.0157
     22 C           2.4213   -0.5929   -0.3355 C.ar    1  LIG11       0.1978
     23 C          -1.7666   -6.7450   -0.2952 C.ar    1  LIG11      -0.0163
     24 C          -3.9542   -6.1754    0.5667 C.ar    1  LIG11      -0.0581
     25 C          -2.9436   -7.1146    0.3612 C.ar    1  LIG11      -0.0581
     26 C          -1.8064    4.1492    0.9127 C.ar    1  LIG11      -0.0546
     27 C          -1.6783    2.2375    2.3839 C.ar    1  LIG11      -0.0546
     28 C          -1.2014    4.9394    1.8923 C.ar    1  LIG11      -0.0612
     29 C          -1.0717    3.0268    3.3612 C.ar    1  LIG11      -0.0612
     30 C          -0.8338    4.3796    3.1161 C.ar    1  LIG11      -0.0617
     31 C           0.0714   -3.6618    2.5692 C.3     1  LIG11       0.0805
     32 C           0.7606   -5.5471   -0.8835 C.3     1  LIG11       0.0790
     33 C           3.7935    1.2052   -0.7303 C.ar    1  LIG11       0.0315
     34 C           4.6717   -0.7919    0.0743 C.ar    1  LIG11       0.0315
     35 C           4.9014    0.5034   -0.3200 C.ar    1  LIG11      -0.0254
@<TRIPOS>BOND
     1     1     4    2
     2     1     5    2
     3     1     7    1
     4     1    16    1
     5     2    13    1
     6     2    15    1
     7     3    14    1
     8     3    31    1
     9     6    18    1
    10     6    32    1
    11     7    12    1
    12     8    12   ar
    13     8    17   ar
    14     9    14   ar
    15     9    17   ar
    16    10    22   ar
    17    10    33   ar
    18    11    22   ar
    19    11    34   ar
    20    12    13   ar
    21    13    14   ar
    22    15    18   ar
    23    15    21   ar
    24    16    19    2
    25    17    22    1
    26    18    23   ar
    27    19    20    1
    28    20    26   ar
    29    20    27   ar
    30    21    24   ar
    31    23    25   ar
    32    24    25   ar
    33    26    28   ar
    34    27    29   ar
    35    28    30   ar
    36    29    30   ar
    37    33    35   ar
    38    34    35   ar
