@<TRIPOS>MOLECULE
BOSENTAN_50CONFORMERS.pdb
 39 42 0 0 0
SMALL
GASTEIGER

@<TRIPOS>ATOM
      1  S1        -1.4970   -0.2320    3.0730 S.O2    1  LGD1        0.0943
      2  O2        -0.3630    0.7980    3.0210 O.2     1  LGD1       -0.1483
      3  O3        -2.8400    0.1150    3.5770 O.2     1  LGD1       -0.1483
      4  O4        -2.4860   -2.8570   -0.3780 O.3     1  LGD1       -0.4427
      5  O5        -0.5060   -3.8200   -2.0000 O.3     1  LGD1       -0.4552
      6  O6        -1.0740   -5.1560    0.5820 O.3     1  LGD1       -0.4684
      7  O7        -2.5120   -4.9770   -3.9700 O.3     1  LGD1       -0.2162
      8  N8        -1.8240   -0.6470    1.4540 N.pl3   1  LGD1       -0.0737
      9  N9         0.3590   -0.6120    0.4410 N.ar    1  LGD1       -0.2027
     10  N10        0.9800   -2.0580   -1.5100 N.ar    1  LGD1       -0.1866
     11  N11        3.6690   -1.0400   -1.1310 N.ar    1  LGD1       -0.2224
     12  N12        2.6010    0.7470    0.2570 N.ar    1  LGD1       -0.2224
     13  C13       -0.0170   -5.3240    5.9540 C.3     1  LGD1        0.0189
     14  C14       -0.3260   -4.0730    5.1580 C.ar    1  LGD1       -0.0227
     15  C15       -0.8510   -6.5200    5.5670 C.3     1  LGD1        0.0044
     16  C16       -0.1920   -5.1420    7.4980 C.3     1  LGD1        0.0044
     17  C17        1.4200   -5.8750    5.6710 C.3     1  LGD1        0.0044
     18  C18        0.6590   -3.3060    4.5660 C.ar    1  LGD1       -0.0029
     19  C19       -1.6760   -3.6790    5.0810 C.ar    1  LGD1       -0.0029
     20  C20       -1.0170   -1.8220    3.7060 C.ar    1  LGD1        0.1271
     21  C21        0.3170   -2.1970    3.7830 C.ar    1  LGD1        0.0199
     22  C22       -2.0380   -2.5950    4.2780 C.ar    1  LGD1        0.0199
     23  C23       -0.8900   -1.1790    0.5640 C.ar    1  LGD1        0.2125
     24  C24       -1.1780   -2.1780   -0.3560 C.ar    1  LGD1        0.2327
     25  C25       -0.2000   -2.6900   -1.2210 C.ar    1  LGD1        0.2651
     26  C26        1.2420   -1.0950   -0.5640 C.ar    1  LGD1        0.2028
     27  C27       -2.9640   -3.5970    0.7090 C.ar    1  LGD1        0.1793
     28  C28        2.6130   -0.4120   -0.4220 C.ar    1  LGD1        0.1990
     29  C29       -0.8110   -3.3870   -3.3530 C.3     1  LGD1        0.2426
     30  C30       -2.2610   -4.7320    1.1870 C.ar    1  LGD1        0.1730
     31  C31       -4.0730   -3.1600    1.4070 C.ar    1  LGD1        0.0406
     32  C32       -2.8110   -5.4740    2.2720 C.ar    1  LGD1        0.0401
     33  C33       -1.1230   -4.7170   -4.0600 C.3     1  LGD1        0.2292
     34  C34       -4.6190   -3.9340    2.4340 C.ar    1  LGD1        0.0033
     35  C35       -4.0120   -5.1100    2.7860 C.ar    1  LGD1        0.0033
     36  C36        4.8530   -0.3880   -1.0650 C.ar    1  LGD1        0.1023
     37  C37        3.8370    1.3390    0.3860 C.ar    1  LGD1        0.1023
     38  C38        4.9320    0.7620   -0.2420 C.ar    1  LGD1        0.0414
     39  C39        0.0140   -5.4020    1.4970 C.3     1  LGD1        0.2526
@<TRIPOS>BOND
     1    33     7    1
     2    33    29    1
     3     5    29    1
     4     5    25    1
     5    10    25   ar
     6    10    26   ar
     7    36    11   ar
     8    36    38   ar
     9    11    28   ar
    10    25    24   ar
    11    38    37   ar
    12    34    31   ar
    13    34    35   ar
    14    28    26    1
    15    28    12   ar
    16    26     9   ar
    17    31    27   ar
    18    37    12   ar
    19    24     4    1
    20    24    23   ar
    21     4    27    1
    22    27    30   ar
    23    35    32   ar
    24    15    13    1
    25     9    23   ar
    26    23     8    1
    27    30    32   ar
    28    30     6    1
    29     6    39    1
    30     8     1    1
    31    18    14   ar
    32    18    21   ar
    33    13    14    1
    34    13    17    1
    35    13    16    1
    36    14    19   ar
    37    21    20   ar
    38    20     1    1
    39    20    22   ar
    40    19    22   ar
    41     1     2    2
    42     1     3    2
@<TRIPOS>MOLECULE
01178588C
 32 34 0 0 0
SMALL
GASTEIGER

@<TRIPOS>ATOM
      1 S           1.4315   -2.4160    0.5398 S.O2    1  LIG11       0.0756
      2 C          -0.2809   -1.9837    0.3964 C.ar    1  LIG11       0.1344
      3 N           2.0504   -0.9596    1.1459 N.pl3   1  LIG11      -0.1951
      4 O           1.5935   -3.4731    1.5083 O.2     1  LIG11      -0.1499
      5 O           1.9243   -2.5917   -0.8142 O.2     1  LIG11      -0.1499
      6 C          -1.2245   -2.1592    1.4042 C.ar    1  LIG11       0.0975
      7 C          -0.6919   -1.4541   -0.8430 C.ar    1  LIG11      -0.0315
      8 C           3.3597   -0.6685    0.6886 C.ar    1  LIG11       0.2006
      9 C          -1.0341   -2.7105    2.7622 C.ar    1  LIG11       0.0023
     10 N          -2.5301   -1.7997    1.1856 N.ar    1  LIG11      -0.2530
     11 C          -2.0179   -1.1021   -1.0503 C.ar    1  LIG11      -0.0417
     12 C           4.5151   -1.3925    1.0015 C.ar    1  LIG11       0.2574
     13 N           3.3606    0.4102   -0.1261 N.ar    1  LIG11      -0.2325
     14 C          -0.0606   -2.2507    3.6621 C.ar    1  LIG11      -0.0523
     15 C          -1.9251   -3.6952    3.2326 C.ar    1  LIG11      -0.0523
     16 C          -2.8964   -1.2922   -0.0090 C.ar    1  LIG11       0.0284
     17 N           5.7246   -1.0591    0.4825 N.ar    1  LIG11      -0.2137
     18 O           4.4192   -2.4339    1.8956 O.3     1  LIG11      -0.4773
     19 C           4.5716    0.7183   -0.6478 C.ar    1  LIG11       0.0510
     20 C           0.0485   -2.7881    4.9538 C.ar    1  LIG11      -0.0579
     21 C          -1.8382   -4.2108    4.5288 C.ar    1  LIG11      -0.0579
     22 C           5.7345    0.0062   -0.3568 C.ar    1  LIG11       0.0602
     23 C           5.6595   -3.0689    2.1738 C.3     1  LIG11       0.0805
     24 C          -0.8406   -3.7719    5.4005 C.ar    1  LIG11      -0.0465
     25 C           7.0362    0.3872   -0.9887 C.3     1  LIG11      -0.0208
     26 C          -0.7461   -4.3281    6.8085 C.3     1  LIG11      -0.0174
     27 C          -0.0461   -5.6980    6.9583 C.3     1  LIG11       0.0085
     28 C          -0.1076   -5.9168    8.4976 C.2     1  LIG11       0.0477
     29 C           1.4063   -5.6659    6.4719 C.3     1  LIG11      -0.0544
     30 C          -0.7935   -6.8385    6.2574 C.3     1  LIG11      -0.0544
     31 O           0.9001   -5.5279    9.1534 O.co2   1  LIG11      -0.5493
     32 O          -1.1768   -6.4285    8.9388 O.co2   1  LIG11      -0.5493
@<TRIPOS>BOND
     1     1     5    2
     2     1     4    2
     3     1     3    1
     4     1     2    1
     5     2     6   ar
     6     2     7   ar
     7     3     8    1
     8     6    10   ar
     9     6     9    1
    10     7    11   ar
    11     8    12   ar
    12     8    13   ar
    13     9    14   ar
    14     9    15   ar
    15    10    16   ar
    16    11    16   ar
    17    12    17   ar
    18    12    18    1
    19    13    19   ar
    20    14    20   ar
    21    15    21   ar
    22    17    22   ar
    23    18    23    1
    24    19    22   ar
    25    20    24   ar
    26    21    24   ar
    27    22    25    1
    28    24    26    1
    29    26    27    1
    30    27    30    1
    31    27    29    1
    32    27    28    1
    33    28    32   ar
    34    28    31   ar
