@<TRIPOS>MOLECULE
BOSENTAN_50CONFORMERS.pdb
 39 42 0 0 0
SMALL
GASTEIGER

@<TRIPOS>ATOM
      1  S1        -2.5440    0.8820    1.3810 S.O2    1  LGD1        0.0943
      2  O2        -3.0580    1.0090   -0.0300 O.2     1  LGD1       -0.1483
      3  O3        -3.4510    1.0070    2.5580 O.2     1  LGD1       -0.1483
      4  O4        -2.5030   -2.6290   -0.5280 O.3     1  LGD1       -0.4427
      5  O5        -0.4920   -3.8130   -2.0760 O.3     1  LGD1       -0.4552
      6  O6        -2.0670   -1.1970   -2.9360 O.3     1  LGD1       -0.4684
      7  O7         0.0690   -6.9230   -2.9370 O.3     1  LGD1       -0.2162
      8  N8        -1.8600   -0.6450    1.4930 N.pl3   1  LGD1       -0.0737
      9  N9         0.4100   -0.5870    0.4360 N.ar    1  LGD1       -0.2027
     10  N10        0.9660   -2.0980   -1.4610 N.ar    1  LGD1       -0.1866
     11  N11        2.6500    0.7480   -1.3020 N.ar    1  LGD1       -0.2224
     12  N12        3.5170   -0.9850    0.1730 N.ar    1  LGD1       -0.2224
     13  C13        2.2420    4.4520    2.1170 C.3     1  LGD1        0.0189
     14  C14        1.0250    3.4900    1.9820 C.ar    1  LGD1       -0.0227
     15  C15        2.0010    5.4460    3.2800 C.3     1  LGD1        0.0044
     16  C16        2.6730    5.2910    0.8990 C.3     1  LGD1        0.0044
     17  C17        3.5210    3.6960    2.5530 C.3     1  LGD1        0.0044
     18  C18        0.6010    2.6040    3.0120 C.ar    1  LGD1       -0.0029
     19  C19        0.3390    3.5290    0.7610 C.ar    1  LGD1       -0.0029
     20  C20       -1.2400    1.9560    1.6370 C.ar    1  LGD1        0.1271
     21  C21       -0.4570    1.7090    2.7450 C.ar    1  LGD1        0.0199
     22  C22       -0.8450    2.7820    0.5840 C.ar    1  LGD1        0.0199
     23  C23       -0.8540   -1.1040    0.5510 C.ar    1  LGD1        0.2125
     24  C24       -1.1750   -2.2000   -0.3310 C.ar    1  LGD1        0.2327
     25  C25       -0.1850   -2.7510   -1.2360 C.ar    1  LGD1        0.2651
     26  C26        1.1720   -1.0790   -0.5680 C.ar    1  LGD1        0.2028
     27  C27       -3.4940   -1.9040   -1.1530 C.ar    1  LGD1        0.1793
     28  C28        2.5770   -0.4000   -0.6350 C.ar    1  LGD1        0.1990
     29  C29       -0.5060   -5.0230   -1.3510 C.3     1  LGD1        0.2426
     30  C30       -3.3220   -1.2950   -2.4140 C.ar    1  LGD1        0.1730
     31  C31       -4.8550   -2.2290   -0.7620 C.ar    1  LGD1        0.0406
     32  C32       -4.4180   -1.0620   -3.2580 C.ar    1  LGD1        0.0401
     33  C33       -0.9950   -6.1940   -2.2700 C.3     1  LGD1        0.2292
     34  C34       -5.9160   -1.6500   -1.4840 C.ar    1  LGD1        0.0033
     35  C35       -5.6950   -1.1630   -2.7440 C.ar    1  LGD1        0.0033
     36  C36        3.8630    1.3500   -1.3730 C.ar    1  LGD1        0.1023
     37  C37        4.7310   -0.3060    0.2120 C.ar    1  LGD1        0.1023
     38  C38        4.8960    0.8630   -0.5380 C.ar    1  LGD1        0.0414
     39  C39       -1.5870    0.1640   -3.1710 C.3     1  LGD1        0.2526
@<TRIPOS>BOND
     1    33     7    1
     2    33    29    1
     3     5    29    1
     4     5    25    1
     5    10    25   ar
     6    10    26   ar
     7    36    11   ar
     8    36    38   ar
     9    11    28   ar
    10    25    24   ar
    11    38    37   ar
    12    34    31   ar
    13    34    35   ar
    14    28    26    1
    15    28    12   ar
    16    26     9   ar
    17    31    27   ar
    18    37    12   ar
    19    24     4    1
    20    24    23   ar
    21     4    27    1
    22    27    30   ar
    23    35    32   ar
    24    15    13    1
    25     9    23   ar
    26    23     8    1
    27    30    32   ar
    28    30     6    1
    29     6    39    1
    30     8     1    1
    31    18    14   ar
    32    18    21   ar
    33    13    14    1
    34    13    17    1
    35    13    16    1
    36    14    19   ar
    37    21    20   ar
    38    20     1    1
    39    20    22   ar
    40    19    22   ar
    41     1     2    2
    42     1     3    2
@<TRIPOS>MOLECULE
108002
 38 42 0 0 0
SMALL
GASTEIGER

@<TRIPOS>ATOM
      1 O          -2.5307    1.6568   -3.5651 O.co2   1  LIG11      -0.5495
      2 O          -1.0518    2.9920   -2.4960 O.co2   1  LIG11      -0.5495
      3 O           0.5730   -4.5491   -0.4529 O.3     1  LIG11      -0.4920
      4 O          -3.2465   -1.4172    0.6082 O.3     1  LIG11      -0.4858
      5 O          -1.0623    1.8542    4.1996 O.3     1  LIG11      -0.4526
      6 O          -0.2783    4.1284    4.0305 O.3     1  LIG11      -0.4526
      7 O          -7.4877   -2.0478   -1.7843 O.3     1  LIG11      -0.4950
      8 O          -2.3595   -3.8574    2.3778 O.co2   1  LIG11      -0.5463
      9 O          -2.3995   -1.9953    3.6977 O.co2   1  LIG11      -0.5463
     10 C          -1.7535    0.9817   -1.4033 C.3     1  LIG11       0.0203
     11 C          -1.9895   -0.4747   -1.8865 C.3     1  LIG11       0.0218
     12 C          -0.3742    1.0155   -0.6908 C.3     1  LIG11       0.0184
     13 C          -0.9323   -1.2696   -1.1672 C.ar    1  LIG11      -0.0320
     14 C          -0.0312   -0.4443   -0.4996 C.ar    1  LIG11      -0.0353
     15 C          -0.3685    1.8559    0.5829 C.ar    1  LIG11      -0.0356
     16 C          -3.4312   -0.9613   -1.7287 C.ar    1  LIG11       0.0026
     17 C          -1.7754    1.9583   -2.5933 C.2     1  LIG11       0.0466
     18 C          -0.7605   -2.6480   -1.1863 C.ar    1  LIG11      -0.0159
     19 C           1.0587   -0.9877    0.1709 C.ar    1  LIG11      -0.0542
     20 C           0.3036   -3.2059   -0.4771 C.ar    1  LIG11       0.1208
     21 C          -4.0352   -1.3581   -0.5180 C.ar    1  LIG11       0.1283
     22 C          -0.7951    1.3535    1.8259 C.ar    1  LIG11      -0.0124
     23 C           0.0687    3.2023    0.5024 C.ar    1  LIG11      -0.0543
     24 C           1.2191   -2.3762    0.1824 C.ar    1  LIG11      -0.0196
     25 C          -4.2196   -0.9650   -2.8994 C.ar    1  LIG11      -0.0510
     26 C          -0.7225    2.1865    2.9252 C.ar    1  LIG11       0.1665
     27 C           0.1187    4.0271    1.6297 C.ar    1  LIG11      -0.0159
     28 C          -5.4078   -1.6814   -0.5084 C.ar    1  LIG11       0.0221
     29 C          -5.5601   -1.3487   -2.8808 C.ar    1  LIG11      -0.0194
     30 C          -0.2748    3.4843    2.8303 C.ar    1  LIG11       0.1662
     31 C          -6.1644   -1.7044   -1.6831 C.ar    1  LIG11       0.1236
     32 C          -0.5732   -5.3808   -0.2316 C.3     1  LIG11       0.0893
     33 C          -0.7712    3.0778    4.8886 C.3     1  LIG11       0.2332
     34 C          -3.8004   -2.0635    1.7710 C.3     1  LIG11       0.1287
     35 C          -0.5769   -6.5032   -1.2717 C.3     1  LIG11      -0.0215
     36 C          -2.7056   -2.6713    2.6729 C.2     1  LIG11       0.0789
     37 C          -8.1185   -2.4900   -0.5901 C.3     1  LIG11       0.0788
     38 C          -0.6823   -5.9909   -2.7029 C.3     1  LIG11      -0.0622
@<TRIPOS>BOND
     1     1    17   ar
     2     2    17   ar
     3     3    20    1
     4     3    32    1
     5     4    21    1
     6     4    34    1
     7     5    26    1
     8     5    33    1
     9     6    30    1
    10     6    33    1
    11     7    31    1
    12     7    37    1
    13     8    36   ar
    14     9    36   ar
    15    10    11    1
    16    10    12    1
    17    10    17    1
    18    11    13    1
    19    11    16    1
    20    12    14    1
    21    12    15    1
    22    13    14   ar
    23    13    18   ar
    24    14    19   ar
    25    15    22   ar
    26    15    23   ar
    27    16    21   ar
    28    16    25   ar
    29    18    20   ar
    30    19    24   ar
    31    20    24   ar
    32    21    28   ar
    33    22    26   ar
    34    23    27   ar
    35    25    29   ar
    36    26    30   ar
    37    27    30   ar
    38    28    31   ar
    39    29    31   ar
    40    32    35    1
    41    34    36    1
    42    35    38    1
