@<TRIPOS>MOLECULE
BOSENTAN_50CONFORMERS.pdb
 39 42 0 0 0
SMALL
GASTEIGER

@<TRIPOS>ATOM
      1  S1        -1.7750   -1.4220    3.0310 S.O2    1  LGD1        0.0943
      2  O2        -0.3720   -1.8370    3.2830 O.2     1  LGD1       -0.1483
      3  O3        -2.4380   -0.3710    3.8160 O.2     1  LGD1       -0.1483
      4  O4        -2.4990   -2.5420   -0.3450 O.3     1  LGD1       -0.4427
      5  O5        -0.5620   -3.8260   -1.9310 O.3     1  LGD1       -0.4552
      6  O6        -4.2670   -4.6770   -0.4750 O.3     1  LGD1       -0.4684
      7  O7        -0.4520   -5.9720   -4.1090 O.3     1  LGD1       -0.2162
      8  N8        -1.8060   -0.8820    1.3950 N.pl3   1  LGD1       -0.0737
      9  N9         0.4440   -0.5550    0.4500 N.ar    1  LGD1       -0.2027
     10  N10        0.9780   -2.1070   -1.3780 N.ar    1  LGD1       -0.1866
     11  N11        2.9100    0.1650   -1.9740 N.ar    1  LGD1       -0.2224
     12  N12        3.2540   -0.2020    0.5040 N.ar    1  LGD1       -0.2224
     13  C13       -5.7970   -6.1310    3.1490 C.3     1  LGD1        0.0189
     14  C14       -4.7580   -4.9650    3.1310 C.ar    1  LGD1       -0.0227
     15  C15       -5.8640   -6.7090    4.5340 C.3     1  LGD1        0.0044
     16  C16       -5.3460   -7.2180    2.1240 C.3     1  LGD1        0.0044
     17  C17       -7.2000   -5.6790    2.6790 C.3     1  LGD1        0.0044
     18  C18       -5.1530   -3.6270    3.0320 C.ar    1  LGD1       -0.0029
     19  C19       -3.3580   -5.1810    3.1990 C.ar    1  LGD1       -0.0029
     20  C20       -2.8730   -2.8300    3.0340 C.ar    1  LGD1        0.1271
     21  C21       -4.2750   -2.5730    2.9300 C.ar    1  LGD1        0.0199
     22  C22       -2.3600   -4.1460    3.1780 C.ar    1  LGD1        0.0199
     23  C23       -0.8300   -1.1160    0.4760 C.ar    1  LGD1        0.2125
     24  C24       -1.1910   -2.0920   -0.4040 C.ar    1  LGD1        0.2327
     25  C25       -0.2650   -2.6710   -1.2180 C.ar    1  LGD1        0.2651
     26  C26        1.2140   -1.0290   -0.5830 C.ar    1  LGD1        0.2028
     27  C27       -3.4290   -2.5360   -1.4160 C.ar    1  LGD1        0.1793
     28  C28        2.5990   -0.3710   -0.6660 C.ar    1  LGD1        0.1990
     29  C29        0.5560   -4.7090   -2.1780 C.3     1  LGD1        0.2426
     30  C30       -4.3080   -3.6170   -1.4650 C.ar    1  LGD1        0.1730
     31  C31       -3.3310   -1.5990   -2.4080 C.ar    1  LGD1        0.0406
     32  C32       -5.2210   -3.7040   -2.5240 C.ar    1  LGD1        0.0401
     33  C33        0.0030   -6.1020   -2.7250 C.3     1  LGD1        0.2292
     34  C34       -4.2120   -1.6650   -3.5220 C.ar    1  LGD1        0.0033
     35  C35       -5.1090   -2.7550   -3.5920 C.ar    1  LGD1        0.0033
     36  C36        4.0700    0.7320   -2.0500 C.ar    1  LGD1        0.1023
     37  C37        4.4290    0.4460    0.3750 C.ar    1  LGD1        0.1023
     38  C38        4.8450    0.9400   -0.9080 C.ar    1  LGD1        0.0414
     39  C39       -3.1530   -5.5360   -0.5240 C.3     1  LGD1        0.2526
@<TRIPOS>BOND
     1    33     7    1
     2    33    29    1
     3     5    29    1
     4     5    25    1
     5    10    25   ar
     6    10    26   ar
     7    36    11   ar
     8    36    38   ar
     9    11    28   ar
    10    25    24   ar
    11    38    37   ar
    12    34    31   ar
    13    34    35   ar
    14    28    26    1
    15    28    12   ar
    16    26     9   ar
    17    31    27   ar
    18    37    12   ar
    19    24     4    1
    20    24    23   ar
    21     4    27    1
    22    27    30   ar
    23    35    32   ar
    24    15    13    1
    25     9    23   ar
    26    23     8    1
    27    30    32   ar
    28    30     6    1
    29     6    39    1
    30     8     1    1
    31    18    14   ar
    32    18    21   ar
    33    13    14    1
    34    13    17    1
    35    13    16    1
    36    14    19   ar
    37    21    20   ar
    38    20     1    1
    39    20    22   ar
    40    19    22   ar
    41     1     2    2
    42     1     3    2
@<TRIPOS>MOLECULE
159594
 37 40 0 0 0
SMALL
GASTEIGER

@<TRIPOS>ATOM
      1 O          -7.1412   -0.0026    1.0509 O.co2   1  LIG11      -0.5493
      2 O          -5.0731    0.5173    1.8808 O.co2   1  LIG11      -0.5493
      3 O          -1.8077   -1.5641   -3.3754 O.3     1  LIG11      -0.4526
      4 O          -7.2701   -4.5903    3.8716 O.2     1  LIG11      -0.2697
      5 O          -2.6806   -2.9787   -5.1213 O.3     1  LIG11      -0.4526
      6 O          -2.1210   -4.7449    5.2881 O.3     1  LIG11      -0.4951
      7 N          -6.5317   -3.5131    0.8308 N.3     1  LIG11       0.2481
      8 N          -6.5183   -6.3906    2.6196 N.am    1  LIG11      -0.2971
      9 C          -5.3399   -1.4405    0.6320 C.3     1  LIG11       0.0574
     10 C          -6.0272   -1.7370   -0.7161 C.3     1  LIG11       0.0378
     11 C          -5.8751   -2.4164    1.6850 C.3     1  LIG11       0.0143
     12 C          -7.1304   -2.7163   -0.3057 C.3     1  LIG11      -0.0230
     13 C          -5.1127   -2.2067   -1.8536 C.ar    1  LIG11      -0.0347
     14 C          -4.8086   -2.9636    2.6179 C.ar    1  LIG11       0.0011
     15 C          -7.5834   -4.3522    1.5358 C.3     1  LIG11       0.0468
     16 C          -5.9013   -0.1645    1.2310 C.2     1  LIG11       0.0513
     17 C          -3.8099   -1.6847   -1.9847 C.ar    1  LIG11      -0.0125
     18 C          -7.1073   -5.1259    2.7743 C.2     1  LIG11       0.2608
     19 C          -5.6107   -3.0073   -2.9163 C.ar    1  LIG11      -0.0544
     20 C          -3.7187   -3.7269    2.1805 C.ar    1  LIG11      -0.0498
     21 C          -4.9319   -2.7111    3.9948 C.ar    1  LIG11      -0.0498
     22 C          -3.0632   -2.0099   -3.1021 C.ar    1  LIG11       0.1665
     23 C          -4.8289   -3.3283   -4.0344 C.ar    1  LIG11      -0.0159
     24 C          -3.5578   -2.8125   -4.0973 C.ar    1  LIG11       0.1662
     25 C          -2.8320   -4.2851    3.1098 C.ar    1  LIG11      -0.0195
     26 C          -4.0526   -3.2786    4.9196 C.ar    1  LIG11      -0.0195
     27 C          -5.8263   -6.9889    3.7780 C.3     1  LIG11       0.0148
     28 C          -6.2977   -6.9604    1.2758 C.3     1  LIG11       0.0148
     29 C          -3.0141   -4.0934    4.4822 C.ar    1  LIG11       0.1201
     30 C          -6.4966   -6.9369    5.1596 C.3     1  LIG11      -0.0374
     31 C          -5.6045   -8.3200    1.1103 C.3     1  LIG11      -0.0374
     32 C          -1.5907   -2.1416   -4.6793 C.3     1  LIG11       0.2332
     33 C          -7.9347   -7.4539    5.2189 C.3     1  LIG11      -0.0545
     34 C          -4.0811   -8.3285    1.2904 C.3     1  LIG11      -0.0545
     35 C          -8.0745   -8.9090    4.8037 C.3     1  LIG11      -0.0652
     36 C          -3.3393   -7.4497    0.2951 C.3     1  LIG11      -0.0652
     37 C          -2.4489   -4.7972    6.6738 C.3     1  LIG11       0.0788
@<TRIPOS>BOND
     1     1    16   ar
     2     2    16   ar
     3     3    22    1
     4     3    32    1
     5     4    18    2
     6     5    24    1
     7     5    32    1
     8     6    29    1
     9     6    37    1
    10     7    11    1
    11     7    12    1
    12     7    15    1
    13     8    18   am
    14     8    27    1
    15     8    28    1
    16     9    10    1
    17     9    11    1
    18     9    16    1
    19    10    12    1
    20    10    13    1
    21    11    14    1
    22    13    17   ar
    23    13    19   ar
    24    14    20   ar
    25    14    21   ar
    26    15    18    1
    27    17    22   ar
    28    19    23   ar
    29    20    25   ar
    30    21    26   ar
    31    22    24   ar
    32    23    24   ar
    33    25    29   ar
    34    26    29   ar
    35    27    30    1
    36    28    31    1
    37    30    33    1
    38    31    34    1
    39    33    35    1
    40    34    36    1
