@<TRIPOS>MOLECULE
BOSENTAN_50CONFORMERS.pdb
 39 42 0 0 0
SMALL
GASTEIGER

@<TRIPOS>ATOM
      1  S1        -1.1700    0.2660    2.7960 S.O2    1  LGD1        0.0943
      2  O2        -2.3120    0.1460    3.7780 O.2     1  LGD1       -0.1483
      3  O3         0.0660   -0.4020    3.1490 O.2     1  LGD1       -0.1483
      4  O4        -2.3030   -3.0520   -0.0210 O.3     1  LGD1       -0.4427
      5  O5        -0.5080   -3.7630   -2.1070 O.3     1  LGD1       -0.4552
      6  O6        -4.2400   -4.8760   -0.5870 O.3     1  LGD1       -0.4684
      7  O7         0.6430   -5.0130   -4.3100 O.3     1  LGD1       -0.2162
      8  N8        -1.7810   -0.6460    1.4470 N.pl3   1  LGD1       -0.0737
      9  N9         0.3600   -0.5270    0.3660 N.ar    1  LGD1       -0.2027
     10  N10        0.9810   -2.1210   -1.3830 N.ar    1  LGD1       -0.1866
     11  N11        3.0620   -0.3270   -2.0010 N.ar    1  LGD1       -0.2224
     12  N12        3.1320    0.1520    0.4370 N.ar    1  LGD1       -0.2224
     13  C13       -0.8330    5.8830    0.4260 C.3     1  LGD1        0.0189
     14  C14       -0.8590    4.4120    1.0880 C.ar    1  LGD1       -0.0227
     15  C15       -1.6970    6.9930    1.1050 C.3     1  LGD1        0.0044
     16  C16       -1.2020    5.7760   -1.0360 C.3     1  LGD1        0.0044
     17  C17        0.5830    6.4810    0.5310 C.3     1  LGD1        0.0044
     18  C18        0.3250    3.6330    1.1220 C.ar    1  LGD1       -0.0029
     19  C19       -2.0800    3.9710    1.6720 C.ar    1  LGD1       -0.0029
     20  C20       -0.9130    1.8850    2.1890 C.ar    1  LGD1        0.1271
     21  C21        0.3030    2.3870    1.6940 C.ar    1  LGD1        0.0199
     22  C22       -2.1130    2.6550    2.1200 C.ar    1  LGD1        0.0199
     23  C23       -0.8770   -1.1700    0.4820 C.ar    1  LGD1        0.2125
     24  C24       -1.1470   -2.3030   -0.2420 C.ar    1  LGD1        0.2327
     25  C25       -0.2850   -2.6920   -1.2420 C.ar    1  LGD1        0.2651
     26  C26        1.2390   -1.0560   -0.5130 C.ar    1  LGD1        0.2028
     27  C27       -2.1570   -4.3020    0.5790 C.ar    1  LGD1        0.1793
     28  C28        2.6600   -0.4250   -0.6870 C.ar    1  LGD1        0.1990
     29  C29       -0.7940   -3.2560   -3.4160 C.3     1  LGD1        0.2426
     30  C30       -3.1940   -5.2600    0.2390 C.ar    1  LGD1        0.1730
     31  C31       -1.1590   -4.6270    1.4470 C.ar    1  LGD1        0.0406
     32  C32       -3.2060   -6.4740    0.9090 C.ar    1  LGD1        0.0401
     33  C33       -0.6570   -4.4180   -4.3950 C.3     1  LGD1        0.2292
     34  C34       -1.2280   -5.8510    2.1100 C.ar    1  LGD1        0.0033
     35  C35       -2.1760   -6.7850    1.7530 C.ar    1  LGD1        0.0033
     36  C36        4.2930    0.3650   -2.1720 C.ar    1  LGD1        0.1023
     37  C37        4.2350    0.9270    0.2590 C.ar    1  LGD1        0.1023
     38  C38        4.7960    1.0300   -1.0420 C.ar    1  LGD1        0.0414
     39  C39       -4.0560   -5.5850   -1.8220 C.3     1  LGD1        0.2526
@<TRIPOS>BOND
     1    33     7    1
     2    33    29    1
     3     5    29    1
     4     5    25    1
     5    10    25   ar
     6    10    26   ar
     7    36    11   ar
     8    36    38   ar
     9    11    28   ar
    10    25    24   ar
    11    38    37   ar
    12    34    31   ar
    13    34    35   ar
    14    28    26    1
    15    28    12   ar
    16    26     9   ar
    17    31    27   ar
    18    37    12   ar
    19    24     4    1
    20    24    23   ar
    21     4    27    1
    22    27    30   ar
    23    35    32   ar
    24    15    13    1
    25     9    23   ar
    26    23     8    1
    27    30    32   ar
    28    30     6    1
    29     6    39    1
    30     8     1    1
    31    18    14   ar
    32    18    21   ar
    33    13    14    1
    34    13    17    1
    35    13    16    1
    36    14    19   ar
    37    21    20   ar
    38    20     1    1
    39    20    22   ar
    40    19    22   ar
    41     1     2    2
    42     1     3    2
@<TRIPOS>MOLECULE
16004692
 32 34 0 0 0
SMALL
GASTEIGER

@<TRIPOS>ATOM
      1 BR         -3.6483   -8.5020    2.1471 Br      1  LIG11      -0.0503
      2 BR          1.8218    4.0670    1.1140 Br      1  LIG11      -0.0472
      3 S           1.2655   -5.1685   -1.5809 S.O2    1  LIG11       0.1104
      4 O          -2.7751   -1.8370    0.8319 O.3     1  LIG11      -0.4724
      5 O           0.1442   -6.0711   -1.5114 O.2     1  LIG11      -0.1381
      6 O           2.6171   -5.6375   -1.7681 O.2     1  LIG11      -0.1381
      7 O          -3.2814    1.0115    1.0782 O.3     1  LIG11      -0.4590
      8 N           0.9750   -4.0520   -2.7851 N.3     1  LIG11      -0.1771
      9 N           1.3288   -4.2382   -0.1955 N.pl3   1  LIG11      -0.1889
     10 N           1.0722   -2.0367   -0.4808 N.ar    1  LIG11      -0.2186
     11 N          -0.9457   -0.8652   -0.1638 N.ar    1  LIG11      -0.2008
     12 N          -1.8351    2.5036   -0.0153 N.ar    1  LIG11      -0.2022
     13 N          -1.3861    1.6885    2.1873 N.ar    1  LIG11      -0.2022
     14 C          -0.4096   -3.8389   -3.2184 C.3     1  LIG11       0.0185
     15 C          -0.8911   -3.2368    0.3566 C.ar    1  LIG11       0.0848
     16 C           0.4347   -3.1511   -0.0645 C.ar    1  LIG11       0.1532
     17 C          -0.5060   -2.5870   -4.0827 C.3     1  LIG11      -0.0416
     18 C          -1.5558   -4.4817    0.8162 C.ar    1  LIG11      -0.0094
     19 C          -1.5260   -1.9985    0.2771 C.ar    1  LIG11       0.2276
     20 C          -1.9465   -2.3178   -4.4909 C.3     1  LIG11      -0.0641
     21 C          -2.8837   -4.7838    0.4499 C.ar    1  LIG11      -0.0527
     22 C          -0.8882   -5.4313    1.6132 C.ar    1  LIG11      -0.0527
     23 C          -3.7219   -1.1362    0.0118 C.3     1  LIG11       0.1252
     24 C          -3.5132   -5.9664    0.8566 C.ar    1  LIG11      -0.0472
     25 C          -1.5028   -6.6292    2.0020 C.ar    1  LIG11      -0.0472
     26 C           0.3363   -0.9320   -0.5001 C.ar    1  LIG11       0.1219
     27 C          -3.5076    0.3715   -0.1769 C.3     1  LIG11       0.1267
     28 C          -2.8145   -6.8893    1.6238 C.ar    1  LIG11       0.0179
     29 C          -2.1241    1.7567    1.0688 C.ar    1  LIG11       0.3180
     30 C          -0.6684    3.1808    0.0313 C.ar    1  LIG11       0.0483
     31 C          -0.2306    2.3849    2.1756 C.ar    1  LIG11       0.0483
     32 C           0.1865    3.1464    1.1085 C.ar    1  LIG11       0.0543
@<TRIPOS>BOND
     1     1    28    1
     2     2    32    1
     3     3     5    2
     4     3     6    2
     5     3     8    1
     6     3     9    1
     7     4    19    1
     8     4    23    1
     9     7    27    1
    10     7    29    1
    11     8    14    1
    12     9    16    1
    13    10    16   ar
    14    10    26   ar
    15    11    19   ar
    16    11    26   ar
    17    12    29   ar
    18    12    30   ar
    19    13    29   ar
    20    13    31   ar
    21    14    17    1
    22    15    16   ar
    23    15    18    1
    24    15    19   ar
    25    17    20    1
    26    18    21   ar
    27    18    22   ar
    28    21    24   ar
    29    22    25   ar
    30    23    27    1
    31    24    28   ar
    32    25    28   ar
    33    30    32   ar
    34    31    32   ar
