@<TRIPOS>MOLECULE
BOSENTAN_50CONFORMERS.pdb
 39 42 0 0 0
SMALL
GASTEIGER

@<TRIPOS>ATOM
      1  S1        -2.0550    0.9060    1.7150 S.O2    1  LGD1        0.0943
      2  O2        -1.7260    1.5580    0.4090 O.2     1  LGD1       -0.1483
      3  O3        -3.4080    0.9190    2.2760 O.2     1  LGD1       -0.1483
      4  O4        -2.3760   -2.9110   -0.0560 O.3     1  LGD1       -0.4427
      5  O5        -0.5950   -3.7310   -2.0680 O.3     1  LGD1       -0.4552
      6  O6        -3.7100   -0.7610   -1.4360 O.3     1  LGD1       -0.4684
      7  O7        -0.3880   -6.5060   -3.1280 O.3     1  LGD1       -0.2162
      8  N8        -1.7970   -0.7160    1.4130 N.pl3   1  LGD1       -0.0737
      9  N9         0.3130   -0.4800    0.3150 N.ar    1  LGD1       -0.2027
     10  N10        1.0210   -2.1360   -1.3260 N.ar    1  LGD1       -0.1866
     11  N11        2.7960    0.3530    0.6890 N.ar    1  LGD1       -0.2224
     12  N12        3.6840   -0.8990   -1.2400 N.ar    1  LGD1       -0.2224
     13  C13        2.3810    2.3730    5.8440 C.3     1  LGD1        0.0189
     14  C14        1.2950    1.8310    4.8080 C.ar    1  LGD1       -0.0227
     15  C15        3.8300    2.1400    5.3300 C.3     1  LGD1        0.0044
     16  C16        2.2720    1.5600    7.2150 C.3     1  LGD1        0.0044
     17  C17        2.1280    3.9080    6.1490 C.3     1  LGD1        0.0044
     18  C18        1.4440    2.0820    3.4370 C.ar    1  LGD1       -0.0029
     19  C19        0.0590    1.1830    5.1470 C.ar    1  LGD1       -0.0029
     20  C20       -0.7140    1.2880    2.8490 C.ar    1  LGD1        0.1271
     21  C21        0.4620    1.8930    2.4600 C.ar    1  LGD1        0.0199
     22  C22       -0.9400    0.9240    4.1850 C.ar    1  LGD1        0.0199
     23  C23       -0.8020   -1.1900    0.5330 C.ar    1  LGD1        0.2125
     24  C24       -1.1460   -2.2610   -0.2750 C.ar    1  LGD1        0.2327
     25  C25       -0.2230   -2.6900   -1.2580 C.ar    1  LGD1        0.2651
     26  C26        1.2120   -1.0720   -0.5260 C.ar    1  LGD1        0.2028
     27  C27       -3.3390   -3.0960   -1.0480 C.ar    1  LGD1        0.1793
     28  C28        2.6780   -0.5030   -0.3510 C.ar    1  LGD1        0.1990
     29  C29        0.1650   -4.0480   -3.2170 C.3     1  LGD1        0.2426
     30  C30       -3.8440   -2.0350   -1.7770 C.ar    1  LGD1        0.1730
     31  C31       -3.6550   -4.4500   -1.3090 C.ar    1  LGD1        0.0406
     32  C32       -4.6600   -2.3550   -2.8830 C.ar    1  LGD1        0.0401
     33  C33       -0.6170   -5.2290   -3.7610 C.3     1  LGD1        0.2292
     34  C34       -4.4520   -4.7260   -2.4710 C.ar    1  LGD1        0.0033
     35  C35       -4.9320   -3.6990   -3.2400 C.ar    1  LGD1        0.0033
     36  C36        4.0910    0.7020    0.9390 C.ar    1  LGD1        0.1023
     37  C37        4.9070   -0.3850   -1.0710 C.ar    1  LGD1        0.1023
     38  C38        5.0910    0.4170    0.0490 C.ar    1  LGD1        0.0414
     39  C39       -4.7500   -0.4210   -0.4590 C.3     1  LGD1        0.2526
@<TRIPOS>BOND
     1    33     7    1
     2    33    29    1
     3     5    29    1
     4     5    25    1
     5    10    25   ar
     6    10    26   ar
     7    36    11   ar
     8    36    38   ar
     9    11    28   ar
    10    25    24   ar
    11    38    37   ar
    12    34    31   ar
    13    34    35   ar
    14    28    26    1
    15    28    12   ar
    16    26     9   ar
    17    31    27   ar
    18    37    12   ar
    19    24     4    1
    20    24    23   ar
    21     4    27    1
    22    27    30   ar
    23    35    32   ar
    24    15    13    1
    25     9    23   ar
    26    23     8    1
    27    30    32   ar
    28    30     6    1
    29     6    39    1
    30     8     1    1
    31    18    14   ar
    32    18    21   ar
    33    13    14    1
    34    13    17    1
    35    13    16    1
    36    14    19   ar
    37    21    20   ar
    38    20     1    1
    39    20    22   ar
    40    19    22   ar
    41     1     2    2
    42     1     3    2
@<TRIPOS>MOLECULE
9957262
 35 38 0 0 0
SMALL
GASTEIGER

@<TRIPOS>ATOM
      1 S          -0.8019   -3.6231    3.0507 S.O2    1  LIG11       0.0668
      2 O          -2.3778   -3.1978   -0.0483 O.3     1  LIG11      -0.4435
      3 O          -2.0140   -0.7469   -1.4834 O.3     1  LIG11      -0.4771
      4 O          -0.3554   -4.6685    3.9487 O.2     1  LIG11      -0.1505
      5 O          -2.2277   -3.4168    2.8760 O.2     1  LIG11      -0.1505
      6 O          -1.2549   -4.2110   -2.4102 O.3     1  LIG11      -0.4914
      7 N          -0.2066   -4.0518    1.5187 N.pl3   1  LIG11      -0.1968
      8 N           1.0921   -2.3866    0.6158 N.ar    1  LIG11      -0.2044
      9 N           0.2478   -0.7447   -0.8785 N.ar    1  LIG11      -0.1867
     10 N           3.6599   -1.4041    0.2347 N.ar    1  LIG11      -0.2331
     11 N           2.7530    0.4785   -0.9190 N.ar    1  LIG11      -0.2331
     12 C          -0.1189   -2.9623    0.6018 C.ar    1  LIG11       0.1883
     13 C          -1.1980   -2.5130   -0.1292 C.ar    1  LIG11       0.2307
     14 C          -0.9563   -1.3501   -0.8314 C.ar    1  LIG11       0.2639
     15 C          -3.1130   -3.3791   -1.2001 C.ar    1  LIG11       0.1702
     16 C          -0.0405   -2.1345    3.5240 C.2     1  LIG11       0.0729
     17 C           1.2518   -1.3037   -0.1695 C.ar    1  LIG11       0.2027
     18 C          -2.5831   -3.8725   -2.4053 C.ar    1  LIG11       0.1621
     19 C          -0.7541   -0.9962    3.5123 C.2     1  LIG11      -0.0353
     20 C          -0.2422    0.3405    3.8468 C.ar    1  LIG11      -0.0237
     21 C          -4.4774   -3.0927   -1.0853 C.ar    1  LIG11      -0.0157
     22 C           2.6163   -0.7079   -0.2793 C.ar    1  LIG11       0.1978
     23 C          -3.4391   -4.0228   -3.5019 C.ar    1  LIG11      -0.0163
     24 C          -5.3178   -3.2471   -2.1843 C.ar    1  LIG11      -0.0581
     25 C          -4.7975   -3.7045   -3.3924 C.ar    1  LIG11      -0.0581
     26 C           1.1069    0.6953    3.7253 C.ar    1  LIG11      -0.0546
     27 C          -1.1617    1.3252    4.2397 C.ar    1  LIG11      -0.0546
     28 C           1.5282    1.9976    4.0122 C.ar    1  LIG11      -0.0612
     29 C          -0.7411    2.6268    4.5235 C.ar    1  LIG11      -0.0612
     30 C           0.6053    2.9619    4.4121 C.ar    1  LIG11      -0.0617
     31 C          -1.6485    0.4126   -2.2234 C.3     1  LIG11       0.0805
     32 C          -0.6450   -4.4119   -3.6796 C.3     1  LIG11       0.0790
     33 C           4.8858   -0.8743    0.0741 C.ar    1  LIG11       0.0315
     34 C           4.0022    0.9643   -1.0388 C.ar    1  LIG11       0.0315
     35 C           5.1180    0.3204   -0.5617 C.ar    1  LIG11      -0.0254
@<TRIPOS>BOND
     1     1     4    2
     2     1     5    2
     3     1     7    1
     4     1    16    1
     5     2    13    1
     6     2    15    1
     7     3    14    1
     8     3    31    1
     9     6    18    1
    10     6    32    1
    11     7    12    1
    12     8    12   ar
    13     8    17   ar
    14     9    14   ar
    15     9    17   ar
    16    10    22   ar
    17    10    33   ar
    18    11    22   ar
    19    11    34   ar
    20    12    13   ar
    21    13    14   ar
    22    15    18   ar
    23    15    21   ar
    24    16    19    2
    25    17    22    1
    26    18    23   ar
    27    19    20    1
    28    20    26   ar
    29    20    27   ar
    30    21    24   ar
    31    23    25   ar
    32    24    25   ar
    33    26    28   ar
    34    27    29   ar
    35    28    30   ar
    36    29    30   ar
    37    33    35   ar
    38    34    35   ar
