@<TRIPOS>MOLECULE
BOSENTAN_50CONFORMERS.pdb
 39 42 0 0 0
SMALL
GASTEIGER

@<TRIPOS>ATOM
      1  S1        -2.2100    0.8910    1.6560 S.O2    1  LGD1        0.0943
      2  O2        -3.6490    0.8670    2.0450 O.2     1  LGD1       -0.1483
      3  O3        -1.2600    1.5580    2.5080 O.2     1  LGD1       -0.1483
      4  O4        -2.3850   -2.9130   -0.0870 O.3     1  LGD1       -0.4427
      5  O5        -0.5280   -3.6880   -2.1330 O.3     1  LGD1       -0.4552
      6  O6        -2.6800   -1.2320   -2.4200 O.3     1  LGD1       -0.4684
      7  O7         0.5730   -5.7640   -3.9500 O.3     1  LGD1       -0.2162
      8  N8        -1.7610   -0.7060    1.4300 N.pl3   1  LGD1       -0.0737
      9  N9         0.3420   -0.5020    0.3260 N.ar    1  LGD1       -0.2027
     10  N10        0.9800   -2.1490   -1.2950 N.ar    1  LGD1       -0.1866
     11  N11        2.7090    0.3860   -1.7460 N.ar    1  LGD1       -0.2224
     12  N12        3.3510   -0.5520    0.3280 N.ar    1  LGD1       -0.2224
     13  C13       -1.3880    3.3940   -3.9040 C.3     1  LGD1        0.0189
     14  C14       -1.6690    2.8260   -2.4750 C.ar    1  LGD1       -0.0227
     15  C15       -2.3300    2.9240   -5.0310 C.3     1  LGD1        0.0044
     16  C16        0.0230    3.1680   -4.4080 C.3     1  LGD1        0.0044
     17  C17       -1.6750    4.9520   -3.8190 C.3     1  LGD1        0.0044
     18  C18       -0.6570    2.7740   -1.5080 C.ar    1  LGD1       -0.0029
     19  C19       -2.8800    2.1980   -2.1100 C.ar    1  LGD1       -0.0029
     20  C20       -2.0200    1.6530    0.0630 C.ar    1  LGD1        0.1271
     21  C21       -0.8150    2.2360   -0.2570 C.ar    1  LGD1        0.0199
     22  C22       -3.0480    1.5460   -0.8880 C.ar    1  LGD1        0.0199
     23  C23       -0.8250   -1.1310    0.5010 C.ar    1  LGD1        0.2125
     24  C24       -1.1650   -2.2800   -0.2740 C.ar    1  LGD1        0.2327
     25  C25       -0.2430   -2.7600   -1.1940 C.ar    1  LGD1        0.2651
     26  C26        1.1830   -1.0600   -0.5540 C.ar    1  LGD1        0.2028
     27  C27       -3.1620   -3.2130   -1.1610 C.ar    1  LGD1        0.1793
     28  C28        2.4780   -0.2990   -0.6400 C.ar    1  LGD1        0.1990
     29  C29       -0.3750   -5.1270   -1.7850 C.3     1  LGD1        0.2426
     30  C30       -3.2680   -2.4770   -2.3200 C.ar    1  LGD1        0.1730
     31  C31       -3.9780   -4.3280   -1.0640 C.ar    1  LGD1        0.0406
     32  C32       -4.1070   -2.8440   -3.3820 C.ar    1  LGD1        0.0401
     33  C33       -0.4930   -6.0060   -3.0100 C.3     1  LGD1        0.2292
     34  C34       -4.7580   -4.7850   -2.1190 C.ar    1  LGD1        0.0033
     35  C35       -4.8170   -4.0590   -3.2820 C.ar    1  LGD1        0.0033
     36  C36        3.9930    0.9670   -1.8590 C.ar    1  LGD1        0.1023
     37  C37        4.6300   -0.0210    0.2350 C.ar    1  LGD1        0.1023
     38  C38        4.8980    0.7820   -0.8340 C.ar    1  LGD1        0.0414
     39  C39       -1.8120   -0.9830   -3.6390 C.3     1  LGD1        0.2526
@<TRIPOS>BOND
     1    33     7    1
     2    33    29    1
     3     5    29    1
     4     5    25    1
     5    10    25   ar
     6    10    26   ar
     7    36    11   ar
     8    36    38   ar
     9    11    28   ar
    10    25    24   ar
    11    38    37   ar
    12    34    31   ar
    13    34    35   ar
    14    28    26    1
    15    28    12   ar
    16    26     9   ar
    17    31    27   ar
    18    37    12   ar
    19    24     4    1
    20    24    23   ar
    21     4    27    1
    22    27    30   ar
    23    35    32   ar
    24    15    13    1
    25     9    23   ar
    26    23     8    1
    27    30    32   ar
    28    30     6    1
    29     6    39    1
    30     8     1    1
    31    18    14   ar
    32    18    21   ar
    33    13    14    1
    34    13    17    1
    35    13    16    1
    36    14    19   ar
    37    21    20   ar
    38    20     1    1
    39    20    22   ar
    40    19    22   ar
    41     1     2    2
    42     1     3    2
@<TRIPOS>MOLECULE
11672244
 53 58 0 0 0
SMALL
GASTEIGER

@<TRIPOS>ATOM
      1 O          -0.8845    0.7250   -4.0277 O.3     1  LIG11      -0.4607
      2 O           0.7475   -3.4471   -9.4821 O.2     1  LIG11      -0.2968
      3 O          -2.4375    6.4081   -5.5980 O.co2   1  LIG11      -0.5492
      4 O          -0.8411    7.5239   -4.4324 O.co2   1  LIG11      -0.5492
      5 O           0.9137   -0.7102   -4.0190 O.2     1  LIG11      -0.2456
      6 O          -3.8103   -4.2723    0.2329 O.3     1  LIG11      -0.5067
      7 O          -4.7889   -0.6758   -5.1627 O.2     1  LIG11      -0.2705
      8 O          -5.7928   -2.5460   -9.7368 O.co2   1  LIG11      -0.5452
      9 O          -7.8406   -1.6074   -9.3448 O.co2   1  LIG11      -0.5452
     10 N          -4.4861   -2.9980   -5.1456 N.am    1  LIG11      -0.2815
     11 C           0.0185    2.4388   -6.6651 C.3     1  LIG11      -0.0160
     12 C          -0.9815    1.3130   -7.1223 C.3     1  LIG11      -0.0256
     13 C          -0.3872    2.9433   -5.1557 C.3     1  LIG11       0.0318
     14 C          -0.5763    0.4287   -8.3916 C.3     1  LIG11      -0.0243
     15 C           0.9003   -0.0597   -8.1720 C.3     1  LIG11      -0.0235
     16 C           1.4751    1.9057   -6.7034 C.3     1  LIG11      -0.0461
     17 C          -1.9007    3.2493   -5.0723 C.2     1  LIG11      -0.0596
     18 C          -2.3671    4.0865   -3.8635 C.3     1  LIG11      -0.0080
     19 C           1.8426    1.1448   -7.9764 C.3     1  LIG11      -0.0483
     20 C           0.4311    4.2330   -4.7999 C.3     1  LIG11      -0.0392
     21 C          -2.4245    1.8569   -7.1405 C.3     1  LIG11      -0.0306
     22 C          -1.5236    5.3655   -3.6221 C.3     1  LIG11       0.0167
     23 C           1.4401   -1.1448   -9.1620 C.3     1  LIG11       0.0267
     24 C          -1.4756   -0.8442   -8.4097 C.3     1  LIG11      -0.0404
     25 C          -0.0311    4.9721   -3.5387 C.3     1  LIG11      -0.0408
     26 C          -0.0502    3.6466   -7.6536 C.3     1  LIG11      -0.0584
     27 C          -2.7616    2.7490   -5.9824 C.2     1  LIG11      -0.0835
     28 C          -0.0485    1.8933   -4.0261 C.3     1  LIG11       0.1025
     29 C          -0.7833    1.1710   -9.7332 C.3     1  LIG11      -0.0590
     30 C          -3.8905    4.3646   -3.7707 C.3     1  LIG11      -0.0405
     31 C          -1.9441    6.0034   -2.2729 C.3     1  LIG11      -0.0412
     32 C          -1.0568   -1.8997   -9.4254 C.3     1  LIG11       0.0069
     33 C          -4.3299    5.0818   -2.4720 C.3     1  LIG11      -0.0343
     34 C           0.4030   -2.2722   -9.3152 C.2     1  LIG11       0.1392
     35 C          -3.4418    6.3123   -2.2066 C.3     1  LIG11      -0.0470
     36 C           1.8048   -0.6259  -10.5601 C.3     1  LIG11      -0.0528
     37 C           2.7235   -1.7852   -8.5663 C.3     1  LIG11      -0.0528
     38 C          -1.6099    6.5393   -4.6569 C.2     1  LIG11       0.0485
     39 C          -5.7917    5.5449   -2.6316 C.3     1  LIG11      -0.0598
     40 C          -4.2774    4.1097   -1.2751 C.3     1  LIG11      -0.0598
     41 C          -0.2857   -0.4795   -3.9482 C.2     1  LIG11       0.3320
     42 C          -1.2598   -1.5518   -3.6554 C.2     1  LIG11       0.0231
     43 C          -2.5651   -1.3497   -3.4133 C.2     1  LIG11      -0.0460
     44 C          -3.4227   -2.4494   -2.9492 C.ar    1  LIG11      -0.0001
     45 C          -4.2400   -3.2392   -3.7802 C.ar    1  LIG11       0.0411
     46 C          -3.2894   -2.7962   -1.5893 C.ar    1  LIG11      -0.0113
     47 C          -4.8415   -4.3944   -3.2497 C.ar    1  LIG11      -0.0364
     48 C          -3.9309   -3.9206   -1.0795 C.ar    1  LIG11       0.1175
     49 C          -4.6970   -4.7285   -1.9026 C.ar    1  LIG11      -0.0184
     50 C          -4.7223   -1.7604   -5.7213 C.2     1  LIG11       0.2411
     51 C          -5.0521   -1.9409   -7.1535 C.2     1  LIG11       0.0021
     52 C          -6.2445   -1.5612   -7.6315 C.2     1  LIG11      -0.0344
     53 C          -6.6536   -1.9235   -9.0522 C.2     1  LIG11       0.0647
@<TRIPOS>BOND
     1     1    41    1
     2     1    28    1
     3     2    34    2
     4     3    38   ar
     5     4    38   ar
     6     5    41    2
     7     6    48    1
     8     7    50    2
     9     8    53   ar
    10     9    53   ar
    11    10    45    1
    12    10    50   am
    13    11    16    1
    14    11    12    1
    15    11    26    1
    16    11    13    1
    17    12    14    1
    18    13    20    1
    19    13    17    1
    20    13    28    1
    21    14    15    1
    22    14    24    1
    23    14    29    1
    24    15    19    1
    25    15    23    1
    26    16    19    1
    27    17    18    1
    28    17    27    2
    29    18    30    1
    30    18    22    1
    31    20    25    1
    32    21    27    1
    33    21    12    1
    34    22    31    1
    35    22    25    1
    36    22    38    1
    37    23    34    1
    38    23    37    1
    39    23    36    1
    40    24    32    1
    41    30    33    1
    42    31    35    1
    43    32    34    1
    44    33    35    1
    45    33    40    1
    46    33    39    1
    47    41    42    1
    48    42    43    2
    49    43    44    1
    50    44    46   ar
    51    44    45   ar
    52    45    47   ar
    53    46    48   ar
    54    47    49   ar
    55    48    49   ar
    56    50    51    1
    57    51    52    2
    58    52    53    1
