@<TRIPOS>MOLECULE
BOSENTAN_50CONFORMERS.pdb
 39 42 0 0 0
SMALL
GASTEIGER

@<TRIPOS>ATOM
      1  S1        -2.1950    0.9790    1.5750 S.O2    1  LGD1        0.0943
      2  O2        -3.6260    1.0770    2.1120 O.2     1  LGD1       -0.1483
      3  O3        -1.0440    1.4720    2.4140 O.2     1  LGD1       -0.1483
      4  O4        -2.4680   -2.8310   -0.1920 O.3     1  LGD1       -0.4427
      5  O5        -0.5400   -3.7360   -2.0620 O.3     1  LGD1       -0.4552
      6  O6        -2.4940   -1.8770   -2.7760 O.3     1  LGD1       -0.4684
      7  O7        -0.2590   -6.0400   -3.9240 O.3     1  LGD1       -0.2162
      8  N8        -1.8420   -0.6480    1.3810 N.pl3   1  LGD1       -0.0737
      9  N9         0.3650   -0.6070    0.3680 N.ar    1  LGD1       -0.2027
     10  N10        0.9560   -2.0500   -1.4450 N.ar    1  LGD1       -0.1866
     11  N11        2.7520    0.8600   -0.4260 N.ar    1  LGD1       -0.2224
     12  N12        3.6740   -1.3280   -0.1880 N.ar    1  LGD1       -0.2224
     13  C13       -1.9750    3.4320   -4.0580 C.3     1  LGD1        0.0189
     14  C14       -1.9630    2.8920   -2.5980 C.ar    1  LGD1       -0.0227
     15  C15       -2.0200    2.3060   -5.1320 C.3     1  LGD1        0.0044
     16  C16       -0.7970    4.3670   -4.3750 C.3     1  LGD1        0.0044
     17  C17       -3.2070    4.2640   -4.4060 C.3     1  LGD1        0.0044
     18  C18       -0.8440    2.8270   -1.8020 C.ar    1  LGD1       -0.0029
     19  C19       -3.1540    2.2710   -2.1610 C.ar    1  LGD1       -0.0029
     20  C20       -2.0710    1.6450   -0.0830 C.ar    1  LGD1        0.1271
     21  C21       -0.8580    2.1870   -0.5190 C.ar    1  LGD1        0.0199
     22  C22       -3.2010    1.6160   -0.9140 C.ar    1  LGD1        0.0199
     23  C23       -0.8390   -1.1560    0.5500 C.ar    1  LGD1        0.2125
     24  C24       -1.1450   -2.2830   -0.2440 C.ar    1  LGD1        0.2327
     25  C25       -0.2140   -2.7180   -1.2060 C.ar    1  LGD1        0.2651
     26  C26        1.2420   -1.0800   -0.5330 C.ar    1  LGD1        0.2028
     27  C27       -3.5380   -2.2090   -0.7300 C.ar    1  LGD1        0.1793
     28  C28        2.6550   -0.4480   -0.3540 C.ar    1  LGD1        0.1990
     29  C29       -0.0540   -4.9970   -1.7680 C.3     1  LGD1        0.2426
     30  C30       -3.6140   -1.7550   -2.0830 C.ar    1  LGD1        0.1730
     31  C31       -4.6390   -2.0100    0.0970 C.ar    1  LGD1        0.0406
     32  C32       -4.7730   -1.1500   -2.5920 C.ar    1  LGD1        0.0401
     33  C33       -0.8710   -6.0160   -2.6140 C.3     1  LGD1        0.2292
     34  C34       -5.7550   -1.2910   -0.3560 C.ar    1  LGD1        0.0033
     35  C35       -5.8300   -0.9060   -1.6770 C.ar    1  LGD1        0.0033
     36  C36        3.9880    1.4070   -0.2740 C.ar    1  LGD1        0.1023
     37  C37        4.9070   -0.8150   -0.0320 C.ar    1  LGD1        0.1023
     38  C38        5.0790    0.5430   -0.0640 C.ar    1  LGD1        0.0414
     39  C39       -2.4100   -1.1280   -3.9700 C.3     1  LGD1        0.2526
@<TRIPOS>BOND
     1    33     7    1
     2    33    29    1
     3     5    29    1
     4     5    25    1
     5    10    25   ar
     6    10    26   ar
     7    36    11   ar
     8    36    38   ar
     9    11    28   ar
    10    25    24   ar
    11    38    37   ar
    12    34    31   ar
    13    34    35   ar
    14    28    26    1
    15    28    12   ar
    16    26     9   ar
    17    31    27   ar
    18    37    12   ar
    19    24     4    1
    20    24    23   ar
    21     4    27    1
    22    27    30   ar
    23    35    32   ar
    24    15    13    1
    25     9    23   ar
    26    23     8    1
    27    30    32   ar
    28    30     6    1
    29     6    39    1
    30     8     1    1
    31    18    14   ar
    32    18    21   ar
    33    13    14    1
    34    13    17    1
    35    13    16    1
    36    14    19   ar
    37    21    20   ar
    38    20     1    1
    39    20    22   ar
    40    19    22   ar
    41     1     2    2
    42     1     3    2
@<TRIPOS>MOLECULE
*****
 29 31 0 0 0
SMALL
GASTEIGER

@<TRIPOS>ATOM
      1 BR         -7.9308   -0.9921   -1.5797 Br      1  LIG11      -0.0503
      2 BR         -3.5712    3.4900   -0.2875 Br      1  LIG11      -0.0472
      3 S          -2.2654   -4.5735    1.9053 S.O2    1  LIG11       0.1079
      4 O          -1.1404   -1.1327   -2.7158 O.3     1  LIG11      -0.4724
      5 O          -3.5049   -4.7928    2.6016 O.2     1  LIG11      -0.1383
      6 O          -1.0300   -5.1445    2.3748 O.2     1  LIG11      -0.1383
      7 O           1.1727    0.5648   -2.3260 O.3     1  LIG11      -0.4590
      8 N          -2.4706   -5.1405    0.3523 N.3     1  LIG11      -0.1906
      9 N          -2.0666   -2.9332    1.6931 N.pl3   1  LIG11      -0.1891
     10 N           0.0199   -2.7338    0.8431 N.ar    1  LIG11      -0.2186
     11 N           0.4875   -2.0675   -1.3646 N.ar    1  LIG11      -0.2008
     12 N          -0.7784    1.7854   -2.8121 N.ar    1  LIG11      -0.2022
     13 N           0.0824    1.5804   -0.5912 N.ar    1  LIG11      -0.2022
     14 C          -1.8347   -2.0210   -0.6023 C.ar    1  LIG11       0.0848
     15 C          -1.2832   -2.5254    0.5825 C.ar    1  LIG11       0.1532
     16 C          -3.3013   -1.7568   -0.8339 C.ar    1  LIG11      -0.0094
     17 C          -0.8245   -1.7887   -1.5418 C.ar    1  LIG11       0.2276
     18 C          -4.2191   -1.5565    0.2206 C.ar    1  LIG11      -0.0527
     19 C          -3.8657   -1.7054   -2.1286 C.ar    1  LIG11      -0.0527
     20 C          -0.1143   -1.1275   -3.7115 C.3     1  LIG11       0.1252
     21 C          -5.5926   -1.3515    0.0083 C.ar    1  LIG11      -0.0472
     22 C          -5.2287   -1.4540   -2.3562 C.ar    1  LIG11      -0.0472
     23 C           0.8514   -2.4947   -0.1621 C.ar    1  LIG11       0.1219
     24 C           0.9647   -0.0257   -3.6054 C.3     1  LIG11       0.1267
     25 C          -6.0900   -1.2905   -1.2833 C.ar    1  LIG11       0.0179
     26 C           0.1346    1.3680   -1.9158 C.ar    1  LIG11       0.3180
     27 C          -1.8587    2.4113   -2.3024 C.ar    1  LIG11       0.0483
     28 C          -1.0127    2.2273   -0.1413 C.ar    1  LIG11       0.0483
     29 C          -2.0329    2.6518   -0.9602 C.ar    1  LIG11       0.0543
@<TRIPOS>BOND
     1     1    25    1
     2     2    29    1
     3     3     9    1
     4     3     8    1
     5     3     6    2
     6     3     5    2
     7     4    17    1
     8     4    20    1
     9     7    24    1
    10     7    26    1
    11     9    15    1
    12    10    15   ar
    13    10    23   ar
    14    11    17   ar
    15    11    23   ar
    16    12    26   ar
    17    12    27   ar
    18    13    26   ar
    19    13    28   ar
    20    14    15   ar
    21    14    17   ar
    22    16    18   ar
    23    16    19   ar
    24    16    14    1
    25    18    21   ar
    26    19    22   ar
    27    20    24    1
    28    21    25   ar
    29    22    25   ar
    30    27    29   ar
    31    28    29   ar
