@<TRIPOS>MOLECULE
BOSENTAN_50CONFORMERS.pdb
 39 42 0 0 0
SMALL
GASTEIGER

@<TRIPOS>ATOM
      1  S1        -2.3470   -1.6990    2.6580 S.O2    1  LGD1        0.0943
      2  O2        -1.2200   -2.5530    3.1180 O.2     1  LGD1       -0.1483
      3  O3        -2.9190   -0.5720    3.4940 O.2     1  LGD1       -0.1483
      4  O4        -2.4260   -2.7810   -0.3200 O.3     1  LGD1       -0.4427
      5  O5        -0.6110   -3.7890   -2.1000 O.3     1  LGD1       -0.4552
      6  O6        -3.9720   -4.6430   -1.7100 O.3     1  LGD1       -0.4684
      7  O7        -1.6330   -4.6130   -4.6310 O.3     1  LGD1       -0.2162
      8  N8        -1.7880   -0.7110    1.4080 N.pl3   1  LGD1       -0.0737
      9  N9         0.3750   -0.5760    0.4340 N.ar    1  LGD1       -0.2027
     10  N10        0.9860   -2.1010   -1.3300 N.ar    1  LGD1       -0.1866
     11  N11        2.7390    0.8430    0.2620 N.ar    1  LGD1       -0.2224
     12  N12        3.1170   -0.0950   -1.9080 N.ar    1  LGD1       -0.2224
     13  C13       -7.1620   -5.1100    0.9650 C.3     1  LGD1        0.0189
     14  C14       -5.9190   -4.2390    1.3530 C.ar    1  LGD1       -0.0227
     15  C15       -8.0720   -4.4580   -0.0220 C.3     1  LGD1        0.0044
     16  C16       -8.1630   -5.3510    2.1640 C.3     1  LGD1        0.0044
     17  C17       -6.6420   -6.4490    0.4160 C.3     1  LGD1        0.0044
     18  C18       -5.9620   -2.8920    1.2090 C.ar    1  LGD1       -0.0029
     19  C19       -4.7600   -4.8180    1.9130 C.ar    1  LGD1       -0.0029
     20  C20       -3.7110   -2.6980    2.0940 C.ar    1  LGD1        0.1271
     21  C21       -4.8110   -2.1180    1.4700 C.ar    1  LGD1        0.0199
     22  C22       -3.6300   -4.0670    2.2900 C.ar    1  LGD1        0.0199
     23  C23       -0.8530   -1.1250    0.4570 C.ar    1  LGD1        0.2125
     24  C24       -1.1170   -2.2520   -0.2880 C.ar    1  LGD1        0.2327
     25  C25       -0.2310   -2.7540   -1.2140 C.ar    1  LGD1        0.2651
     26  C26        1.2200   -0.9680   -0.5620 C.ar    1  LGD1        0.2028
     27  C27       -3.2710   -2.3590   -1.3970 C.ar    1  LGD1        0.1793
     28  C28        2.4220    0.0480   -0.7810 C.ar    1  LGD1        0.1990
     29  C29        0.1900   -3.8350   -3.3400 C.3     1  LGD1        0.2426
     30  C30       -4.1250   -3.2990   -2.0170 C.ar    1  LGD1        0.1730
     31  C31       -3.3940   -0.9890   -1.7430 C.ar    1  LGD1        0.0406
     32  C32       -4.9720   -2.9260   -3.0820 C.ar    1  LGD1        0.0401
     33  C33       -0.2970   -4.9710   -4.2150 C.3     1  LGD1        0.2292
     34  C34       -4.2880   -0.5840   -2.7470 C.ar    1  LGD1        0.0033
     35  C35       -4.9710   -1.5840   -3.4910 C.ar    1  LGD1        0.0033
     36  C36        3.7980    1.6710    0.0410 C.ar    1  LGD1        0.1023
     37  C37        4.1420    0.6850   -2.1220 C.ar    1  LGD1        0.1023
     38  C38        4.5320    1.5620   -1.0940 C.ar    1  LGD1        0.0414
     39  C39       -4.5400   -5.6070   -2.5800 C.3     1  LGD1        0.2526
@<TRIPOS>BOND
     1    33     7    1
     2    33    29    1
     3     5    29    1
     4     5    25    1
     5    10    25   ar
     6    10    26   ar
     7    36    11   ar
     8    36    38   ar
     9    11    28   ar
    10    25    24   ar
    11    38    37   ar
    12    34    31   ar
    13    34    35   ar
    14    28    26    1
    15    28    12   ar
    16    26     9   ar
    17    31    27   ar
    18    37    12   ar
    19    24     4    1
    20    24    23   ar
    21     4    27    1
    22    27    30   ar
    23    35    32   ar
    24    15    13    1
    25     9    23   ar
    26    23     8    1
    27    30    32   ar
    28    30     6    1
    29     6    39    1
    30     8     1    1
    31    18    14   ar
    32    18    21   ar
    33    13    14    1
    34    13    17    1
    35    13    16    1
    36    14    19   ar
    37    21    20   ar
    38    20     1    1
    39    20    22   ar
    40    19    22   ar
    41     1     2    2
    42     1     3    2
@<TRIPOS>MOLECULE
2-[[2-[2-butyl-4-[(Z)-2-carboxy-3-(6-methoxy-1,3-benzodioxol-5-yl)prop-1-enyl]pyrazol-3-yl]-5-methoxyphenoxy]methyl]benzoic acid
 45 49 0 0 0
SMALL
GASTEIGER

@<TRIPOS>ATOM
      1 O          -3.7528    0.1181   -0.7495 O.3     1  LIG11      -0.4866
      2 O           5.4799   -0.2346    0.1602 O.3     1  LIG11      -0.4526
      3 O           6.1972    1.8956    1.0393 O.3     1  LIG11      -0.4525
      4 O           2.5637    4.1917   -1.1705 O.3     1  LIG11      -0.4947
      5 O          -7.1276   -1.9184   -3.2222 O.3     1  LIG11      -0.4950
      6 O          -0.6093    3.8602   -1.6227 O.co2   1  LIG11      -0.5449
      7 O          -0.2410    3.1573    0.5242 O.co2   1  LIG11      -0.5449
      8 O          -6.5078    0.4962    1.3002 O.co2   1  LIG11      -0.5446
      9 O          -8.0116   -1.1375    0.9082 O.co2   1  LIG11      -0.5446
     10 N          -0.6393   -2.4443   -2.6810 N.ar    1  LIG11      -0.2630
     11 N           0.5102   -2.6098   -1.9915 N.ar    1  LIG11      -0.1785
     12 C          -1.5478   -1.6065   -2.0186 C.ar    1  LIG11       0.0795
     13 C          -0.6956   -2.9670   -4.0378 C.3     1  LIG11       0.0422
     14 C           0.3814   -2.4181   -4.9830 C.3     1  LIG11      -0.0336
     15 C          -0.6232   -0.6990   -1.4728 C.ar    1  LIG11       0.0207
     16 C          -3.0340   -1.7300   -2.1727 C.ar    1  LIG11       0.0425
     17 C           0.1265   -0.9580   -5.3680 C.3     1  LIG11      -0.0542
     18 C           0.5409   -1.4808   -1.2846 C.ar    1  LIG11       0.0571
     19 C          -0.7364    0.6651   -1.0620 C.2     1  LIG11      -0.0459
     20 C           1.4544    1.6797   -2.0447 C.3     1  LIG11       0.0029
     21 C          -4.0059   -0.8627   -1.6562 C.ar    1  LIG11       0.1336
     22 C           0.1670    1.6566   -1.2576 C.2     1  LIG11      -0.0200
     23 C           2.7385    1.8076   -1.2299 C.ar    1  LIG11       0.0023
     24 C          -3.5679   -2.8607   -2.8337 C.ar    1  LIG11      -0.0456
     25 C           1.1216   -0.4742   -6.4108 C.3     1  LIG11      -0.0652
     26 C          -5.3546   -0.9405   -2.0605 C.ar    1  LIG11       0.0224
     27 C           3.2005    3.0569   -0.7397 C.ar    1  LIG11       0.1273
     28 C           3.5034    0.6572   -0.9569 C.ar    1  LIG11      -0.0092
     29 C          -4.9182   -2.9778   -3.2005 C.ar    1  LIG11      -0.0191
     30 C           4.6375    0.7787   -0.1809 C.ar    1  LIG11       0.1667
     31 C          -5.8127   -1.9783   -2.8617 C.ar    1  LIG11       0.1236
     32 C           5.0473    1.9905    0.3168 C.ar    1  LIG11       0.1697
     33 C           4.3599    3.1503    0.0453 C.ar    1  LIG11       0.0258
     34 C          -0.2840    3.0234   -0.7318 C.2     1  LIG11       0.0680
     35 C          -3.7629   -0.2825    0.6398 C.3     1  LIG11       0.1153
     36 C           6.4450    0.4784    0.9565 C.3     1  LIG11       0.2332
     37 C          -4.3828   -1.5971    1.1150 C.ar    1  LIG11      -0.0016
     38 C          -5.7649   -1.7838    1.3607 C.ar    1  LIG11       0.0037
     39 C          -3.4978   -2.6712    1.3743 C.ar    1  LIG11      -0.0547
     40 C           2.2658    5.1168   -0.1258 C.3     1  LIG11       0.0788
     41 C          -6.1950   -3.0347    1.8609 C.ar    1  LIG11      -0.0525
     42 C          -3.9491   -3.8889    1.8856 C.ar    1  LIG11      -0.0614
     43 C          -7.6765   -3.0657   -3.8494 C.3     1  LIG11       0.0788
     44 C          -5.3027   -4.0711    2.1317 C.ar    1  LIG11      -0.0611
     45 C          -6.8317   -0.7207    1.1542 C.2     1  LIG11       0.0720
@<TRIPOS>BOND
     1     1    35    1
     2     1    21    1
     3     2    36    1
     4     2    30    1
     5     3    32    1
     6     3    36    1
     7     4    27    1
     8     4    40    1
     9     5    31    1
    10     5    43    1
    11     6    34   ar
    12     7    34   ar
    13     8    45   ar
    14     9    45   ar
    15    10    11   ar
    16    10    12   ar
    17    10    13    1
    18    11    18   ar
    19    12    15   ar
    20    13    14    1
    21    14    17    1
    22    15    18   ar
    23    15    19    1
    24    16    24   ar
    25    16    21   ar
    26    16    12    1
    27    17    25    1
    28    19    22    2
    29    20    22    1
    30    20    23    1
    31    21    26   ar
    32    22    34    1
    33    23    28   ar
    34    23    27   ar
    35    24    29   ar
    36    26    31   ar
    37    27    33   ar
    38    28    30   ar
    39    29    31   ar
    40    30    32   ar
    41    32    33   ar
    42    35    37    1
    43    37    39   ar
    44    37    38   ar
    45    38    41   ar
    46    38    45    1
    47    39    42   ar
    48    41    44   ar
    49    42    44   ar
