@<TRIPOS>MOLECULE
BOSENTAN_50CONFORMERS.pdb
 39 42 0 0 0
SMALL
GASTEIGER

@<TRIPOS>ATOM
      1  S1        -1.2370    0.1620    2.8570 S.O2    1  LGD1        0.0943
      2  O2        -0.4130    1.3820    2.4810 O.2     1  LGD1       -0.1483
      3  O3        -2.4530    0.3900    3.6750 O.2     1  LGD1       -0.1483
      4  O4        -2.3880   -2.7650   -0.1120 O.3     1  LGD1       -0.4427
      5  O5        -0.4890   -3.7900   -2.0520 O.3     1  LGD1       -0.4552
      6  O6        -1.1040   -3.8950    2.1700 O.3     1  LGD1       -0.4684
      7  O7        -0.7000   -5.4660   -4.4110 O.3     1  LGD1       -0.2162
      8  N8        -1.7620   -0.7360    1.5000 N.pl3   1  LGD1       -0.0737
      9  N9         0.3470   -0.5510    0.3410 N.ar    1  LGD1       -0.2027
     10  N10        0.9890   -2.1210   -1.3840 N.ar    1  LGD1       -0.1866
     11  N11        3.2780   -0.3800    0.5340 N.ar    1  LGD1       -0.2224
     12  N12        2.7470    0.2870   -1.8070 N.ar    1  LGD1       -0.2224
     13  C13        2.1080   -3.6810    6.4250 C.3     1  LGD1        0.0189
     14  C14        1.3330   -2.5870    5.6550 C.ar    1  LGD1       -0.0227
     15  C15        3.5950   -3.5340    6.3770 C.3     1  LGD1        0.0044
     16  C16        1.7960   -4.9780    5.7160 C.3     1  LGD1        0.0044
     17  C17        1.7710   -3.9110    7.8870 C.3     1  LGD1        0.0044
     18  C18        1.9210   -1.6830    4.7520 C.ar    1  LGD1       -0.0029
     19  C19       -0.0800   -2.6910    5.6780 C.ar    1  LGD1       -0.0029
     20  C20       -0.2550   -0.9230    3.9280 C.ar    1  LGD1        0.1271
     21  C21        1.1720   -0.8700    3.9210 C.ar    1  LGD1        0.0199
     22  C22       -0.8600   -1.8310    4.8160 C.ar    1  LGD1        0.0199
     23  C23       -0.8840   -1.1100    0.4780 C.ar    1  LGD1        0.2125
     24  C24       -1.1770   -2.1770   -0.3220 C.ar    1  LGD1        0.2327
     25  C25       -0.2380   -2.6790   -1.2270 C.ar    1  LGD1        0.2651
     26  C26        1.1970   -1.1130   -0.5260 C.ar    1  LGD1        0.2028
     27  C27       -2.5230   -4.0940    0.2060 C.ar    1  LGD1        0.1793
     28  C28        2.5370   -0.3470   -0.5690 C.ar    1  LGD1        0.1990
     29  C29       -1.3770   -3.5150   -3.1800 C.3     1  LGD1        0.2426
     30  C30       -1.8710   -4.6400    1.2460 C.ar    1  LGD1        0.1730
     31  C31       -3.4000   -4.9600   -0.5370 C.ar    1  LGD1        0.0406
     32  C32       -2.0650   -5.9920    1.6420 C.ar    1  LGD1        0.0401
     33  C33       -1.8600   -4.8150   -3.8350 C.3     1  LGD1        0.2292
     34  C34       -3.5370   -6.3420   -0.2630 C.ar    1  LGD1        0.0033
     35  C35       -2.8310   -6.8840    0.8430 C.ar    1  LGD1        0.0033
     36  C36        4.3580    0.4000    0.4620 C.ar    1  LGD1        0.1023
     37  C37        3.8670    1.0790   -1.8320 C.ar    1  LGD1        0.1023
     38  C38        4.6930    1.1800   -0.6750 C.ar    1  LGD1        0.0414
     39  C39        0.3750   -4.0230    2.0230 C.3     1  LGD1        0.2526
@<TRIPOS>BOND
     1    33     7    1
     2    33    29    1
     3     5    29    1
     4     5    25    1
     5    10    25   ar
     6    10    26   ar
     7    36    11   ar
     8    36    38   ar
     9    11    28   ar
    10    25    24   ar
    11    38    37   ar
    12    34    31   ar
    13    34    35   ar
    14    28    26    1
    15    28    12   ar
    16    26     9   ar
    17    31    27   ar
    18    37    12   ar
    19    24     4    1
    20    24    23   ar
    21     4    27    1
    22    27    30   ar
    23    35    32   ar
    24    15    13    1
    25     9    23   ar
    26    23     8    1
    27    30    32   ar
    28    30     6    1
    29     6    39    1
    30     8     1    1
    31    18    14   ar
    32    18    21   ar
    33    13    14    1
    34    13    17    1
    35    13    16    1
    36    14    19   ar
    37    21    20   ar
    38    20     1    1
    39    20    22   ar
    40    19    22   ar
    41     1     2    2
    42     1     3    2
@<TRIPOS>MOLECULE
9911482
 30 32 0 0 0
SMALL
GASTEIGER

@<TRIPOS>ATOM
      1 S          -2.0977   -7.9363    2.9432 S.O2    1  LIG11       0.0758
      2 S          -2.3954   -4.5104    0.4527 S.2     1  LIG11      -0.0902
      3 O          -0.9902  -10.0663    0.9103 O.2     1  LIG11      -0.3377
      4 O          -3.0991   -8.9457    2.6752 O.2     1  LIG11      -0.1499
      5 O          -2.1516   -7.1771    4.1775 O.2     1  LIG11      -0.1499
      6 O           0.1034   -5.5438    3.1118 O.2     1  LIG11      -0.2692
      7 O           2.9520   -3.7005    3.0358 O.2     1  LIG11      -0.2923
      8 N          -1.1765   -3.6221    3.1178 N.am    1  LIG11      -0.2802
      9 N          -0.5509   -8.5784    2.8130 N.pl3   1  LIG11      -0.1831
     10 N          -0.8164  -11.3969    0.5819 N.ar    1  LIG11      -0.0810
     11 C          -0.4017   -2.8158    3.9857 C.ar    1  LIG11       0.0471
     12 C          -2.3448   -6.7417    1.7145 C.ar    1  LIG11       0.1277
     13 C          -1.0809   -2.0585    4.9708 C.ar    1  LIG11      -0.0283
     14 C           1.0022   -2.6919    3.8880 C.ar    1  LIG11       0.0388
     15 C          -1.8149   -5.4660    1.7570 C.ar    1  LIG11       0.1007
     16 C           1.0423   -1.1263    5.7610 C.ar    1  LIG11      -0.0494
     17 C          -0.3472   -1.2181    5.8344 C.ar    1  LIG11      -0.0541
     18 C           1.7080   -1.8677    4.7853 C.ar    1  LIG11      -0.0466
     19 C          -0.8617   -4.9075    2.7044 C.2     1  LIG11       0.2568
     20 C          -0.5124   -9.8357    2.1634 C.ar    1  LIG11       0.2399
     21 C          -3.1879   -6.9451    0.5776 C.ar    1  LIG11      -0.0273
     22 C          -0.0183  -11.0103    2.6892 C.ar    1  LIG11       0.0350
     23 C          -2.5680   -2.1153    5.2194 C.3     1  LIG11      -0.0379
     24 C           1.8408   -3.2358    2.7837 C.2     1  LIG11       0.1619
     25 C          -0.2597  -11.9636    1.6577 C.ar    1  LIG11       0.0854
     26 C          -3.3016   -5.8084   -0.1899 C.ar    1  LIG11      -0.0217
     27 C           1.8096   -0.2081    6.6655 C.3     1  LIG11      -0.0397
     28 C           0.5336  -11.2791    4.0362 C.3     1  LIG11      -0.0330
     29 C          -0.0125  -13.4252    1.6840 C.3     1  LIG11      -0.0188
     30 C           1.3711   -3.0657    1.3613 C.3     1  LIG11      -0.0013
@<TRIPOS>BOND
     1     1     4    2
     2     1     5    2
     3     1     9    1
     4     1    12    1
     5     2    15   ar
     6     2    26   ar
     7     3    10   ar
     8     3    20   ar
     9     6    19    2
    10     7    24    2
    11     8    11    1
    12     8    19   am
    13     9    20    1
    14    10    25   ar
    15    11    13   ar
    16    11    14   ar
    17    12    15   ar
    18    12    21   ar
    19    13    17   ar
    20    13    23    1
    21    14    18   ar
    22    14    24    1
    23    15    19    1
    24    16    17   ar
    25    16    18   ar
    26    16    27    1
    27    20    22   ar
    28    21    26   ar
    29    22    25   ar
    30    22    28    1
    31    24    30    1
    32    25    29    1
