@<TRIPOS>MOLECULE
BOSENTAN_50CONFORMERS.pdb
 39 42 0 0 0
SMALL
GASTEIGER

@<TRIPOS>ATOM
      1  S1        -1.8260    0.8680    2.1150 S.O2    1  LGD1        0.0943
      2  O2        -3.2310    1.0510    2.6420 O.2     1  LGD1       -0.1483
      3  O3        -0.7360    0.8420    3.1650 O.2     1  LGD1       -0.1483
      4  O4        -2.4030   -2.7480   -0.1730 O.3     1  LGD1       -0.4427
      5  O5        -0.5250   -3.7950   -2.0950 O.3     1  LGD1       -0.4552
      6  O6        -2.8550   -0.2480   -1.8440 O.3     1  LGD1       -0.4684
      7  O7        -1.9730   -4.8030   -4.4000 O.3     1  LGD1       -0.2162
      8  N8        -1.8030   -0.6630    1.3420 N.pl3   1  LGD1       -0.0737
      9  N9         0.3910   -0.5170    0.4490 N.ar    1  LGD1       -0.2027
     10  N10        0.9160   -2.0940   -1.3960 N.ar    1  LGD1       -0.1866
     11  N11        2.6710    0.8150   -0.9050 N.ar    1  LGD1       -0.2224
     12  N12        3.5280   -1.4300   -0.5030 N.ar    1  LGD1       -0.2224
     13  C13       -0.5230    4.4800   -2.6490 C.3     1  LGD1        0.0189
     14  C14       -0.8270    3.6580   -1.3880 C.ar    1  LGD1       -0.0227
     15  C15       -1.6210    5.5800   -2.8100 C.3     1  LGD1        0.0044
     16  C16       -0.4680    3.6970   -4.0130 C.3     1  LGD1        0.0044
     17  C17        0.8300    5.1600   -2.6730 C.3     1  LGD1        0.0044
     18  C18        0.1540    3.3630   -0.3720 C.ar    1  LGD1       -0.0029
     19  C19       -2.1270    3.0610   -1.2730 C.ar    1  LGD1       -0.0029
     20  C20       -1.4510    1.9720    0.8310 C.ar    1  LGD1        0.1271
     21  C21       -0.1290    2.4730    0.7040 C.ar    1  LGD1        0.0199
     22  C22       -2.4280    2.2780   -0.1370 C.ar    1  LGD1        0.0199
     23  C23       -0.8140   -1.1840    0.5480 C.ar    1  LGD1        0.2125
     24  C24       -1.1190   -2.2490   -0.2350 C.ar    1  LGD1        0.2327
     25  C25       -0.2610   -2.7270   -1.2750 C.ar    1  LGD1        0.2651
     26  C26        1.1980   -1.0480   -0.5300 C.ar    1  LGD1        0.2028
     27  C27       -3.3080   -2.6450   -1.2120 C.ar    1  LGD1        0.1793
     28  C28        2.5710   -0.4720   -0.5450 C.ar    1  LGD1        0.1990
     29  C29       -0.0310   -3.6890   -3.4570 C.3     1  LGD1        0.2426
     30  C30       -3.5470   -1.4580   -2.0260 C.ar    1  LGD1        0.1730
     31  C31       -4.0820   -3.7780   -1.4710 C.ar    1  LGD1        0.0406
     32  C32       -4.5460   -1.5120   -2.9680 C.ar    1  LGD1        0.0401
     33  C33       -0.5230   -4.8470   -4.3420 C.3     1  LGD1        0.2292
     34  C34       -5.0600   -3.7560   -2.4690 C.ar    1  LGD1        0.0033
     35  C35       -5.2410   -2.6820   -3.2890 C.ar    1  LGD1        0.0033
     36  C36        3.9260    1.3540   -0.9780 C.ar    1  LGD1        0.1023
     37  C37        4.8260   -0.9910   -0.5450 C.ar    1  LGD1        0.1023
     38  C38        4.9700    0.4280   -0.7720 C.ar    1  LGD1        0.0414
     39  C39       -1.9900   -0.1040   -3.0090 C.3     1  LGD1        0.2526
@<TRIPOS>BOND
     1    33     7    1
     2    33    29    1
     3     5    29    1
     4     5    25    1
     5    10    25   ar
     6    10    26   ar
     7    36    11   ar
     8    36    38   ar
     9    11    28   ar
    10    25    24   ar
    11    38    37   ar
    12    34    31   ar
    13    34    35   ar
    14    28    26    1
    15    28    12   ar
    16    26     9   ar
    17    31    27   ar
    18    37    12   ar
    19    24     4    1
    20    24    23   ar
    21     4    27    1
    22    27    30   ar
    23    35    32   ar
    24    15    13    1
    25     9    23   ar
    26    23     8    1
    27    30    32   ar
    28    30     6    1
    29     6    39    1
    30     8     1    1
    31    18    14   ar
    32    18    21   ar
    33    13    14    1
    34    13    17    1
    35    13    16    1
    36    14    19   ar
    37    21    20   ar
    38    20     1    1
    39    20    22   ar
    40    19    22   ar
    41     1     2    2
    42     1     3    2
@<TRIPOS>MOLECULE
156690
 38 41 0 0 0
SMALL
GASTEIGER

@<TRIPOS>ATOM
      1 S          -2.1408   -5.0871   -1.9471 S.O2    1  LIG11       0.0741
      2 O          -1.6346    2.1333   -2.1696 O.2     1  LIG11      -0.2756
      3 O          -0.8108   -4.6707   -2.3346 O.2     1  LIG11      -0.1499
      4 O          -2.7632   -6.1973   -2.6382 O.2     1  LIG11      -0.1499
      5 O           3.1241    0.2260   -0.9246 O.2     1  LIG11      -0.4436
      6 O          -4.6239   -7.4572    1.0972 O.2     1  LIG11      -0.3578
      7 N          -0.7022    0.8957   -3.8592 N.am    1  LIG11      -0.3002
      8 N          -2.0985   -5.4625   -0.2817 N.pl3   1  LIG11      -0.1965
      9 N           3.4041   -1.4952    0.5105 N.ar    1  LIG11      -0.2175
     10 N          -3.4132   -7.2905    0.4531 N.ar    1  LIG11      -0.0614
     11 C          -0.6388    4.5084   -3.9483 C.3     1  LIG11      -0.0295
     12 C           0.0774    3.2437   -3.4147 C.3     1  LIG11       0.0290
     13 C           0.4341    5.4921   -4.4580 C.3     1  LIG11      -0.0596
     14 C          -1.4295    5.2066   -2.8267 C.3     1  LIG11      -0.0596
     15 C          -1.5894    4.1792   -5.1094 C.3     1  LIG11      -0.0596
     16 C          -0.8354    2.0590   -3.1069 C.2     1  LIG11       0.2161
     17 C          -1.3850   -0.3127   -3.3757 C.3     1  LIG11       0.0400
     18 C          -0.7650   -0.9675   -2.1413 C.ar    1  LIG11      -0.0216
     19 C          -1.4796   -1.9178   -1.3579 C.ar    1  LIG11      -0.0113
     20 C          -2.8569   -2.3660   -1.6949 C.ar    1  LIG11       0.0090
     21 C           0.0828    0.7528   -5.0768 C.3     1  LIG11       0.0035
     22 C           0.5694   -0.6533   -1.7856 C.ar    1  LIG11      -0.0442
     23 C          -3.2385   -3.6852   -2.0336 C.ar    1  LIG11       0.1162
     24 C          -0.8440   -2.4264   -0.2080 C.ar    1  LIG11      -0.0529
     25 C           1.2011   -1.2087   -0.6667 C.ar    1  LIG11       0.0372
     26 C           0.4741   -2.0956    0.1226 C.ar    1  LIG11      -0.0489
     27 C          -3.8888   -1.4019   -1.6804 C.ar    1  LIG11      -0.0521
     28 C          -4.5523   -3.9747   -2.4570 C.ar    1  LIG11      -0.0345
     29 C          -5.1962   -1.6971   -2.0905 C.ar    1  LIG11      -0.0611
     30 C           2.5812   -0.8828   -0.3220 C.ar    1  LIG11       0.2271
     31 C          -5.5229   -2.9792   -2.5017 C.ar    1  LIG11      -0.0599
     32 C          -3.2530   -5.9736    0.3130 C.ar    1  LIG11       0.1837
     33 C          -4.2847   -5.2506    0.9693 C.ar    1  LIG11       0.0342
     34 C          -5.1404   -6.2404    1.4066 C.ar    1  LIG11       0.1390
     35 C          -4.4469   -3.7996    1.2024 C.3     1  LIG11      -0.0330
     36 C           4.3862    0.2961   -0.4207 C.ar    1  LIG11       0.1125
     37 C           4.5586   -0.7575    0.4391 C.ar    1  LIG11       0.0663
     38 C          -6.4256   -6.2280    2.1333 C.3     1  LIG11      -0.0034
@<TRIPOS>BOND
     1     1     3    2
     2     1     4    2
     3     1     8    1
     4     1    23    1
     5     2    16    2
     6     5    30   ar
     7     5    36   ar
     8     6    10   ar
     9     6    34   ar
    10     7    16   am
    11     7    17    1
    12     7    21    1
    13     8    32    1
    14     9    30   ar
    15     9    37   ar
    16    10    32   ar
    17    11    12    1
    18    11    13    1
    19    11    14    1
    20    11    15    1
    21    12    16    1
    22    17    18    1
    23    18    19   ar
    24    18    22   ar
    25    19    20    1
    26    19    24   ar
    27    20    23   ar
    28    20    27   ar
    29    22    25   ar
    30    23    28   ar
    31    24    26   ar
    32    25    26   ar
    33    25    30    1
    34    27    29   ar
    35    28    31   ar
    36    29    31   ar
    37    32    33   ar
    38    33    34   ar
    39    33    35    1
    40    34    38    1
    41    36    37   ar
