@<TRIPOS>MOLECULE
BOSENTAN_50CONFORMERS.pdb
 39 42 0 0 0
SMALL
GASTEIGER

@<TRIPOS>ATOM
      1  S1        -1.8260    0.8680    2.1150 S.O2    1  LGD1        0.0943
      2  O2        -3.2310    1.0510    2.6420 O.2     1  LGD1       -0.1483
      3  O3        -0.7360    0.8420    3.1650 O.2     1  LGD1       -0.1483
      4  O4        -2.4030   -2.7480   -0.1730 O.3     1  LGD1       -0.4427
      5  O5        -0.5250   -3.7950   -2.0950 O.3     1  LGD1       -0.4552
      6  O6        -2.8550   -0.2480   -1.8440 O.3     1  LGD1       -0.4684
      7  O7        -1.9730   -4.8030   -4.4000 O.3     1  LGD1       -0.2162
      8  N8        -1.8030   -0.6630    1.3420 N.pl3   1  LGD1       -0.0737
      9  N9         0.3910   -0.5170    0.4490 N.ar    1  LGD1       -0.2027
     10  N10        0.9160   -2.0940   -1.3960 N.ar    1  LGD1       -0.1866
     11  N11        2.6710    0.8150   -0.9050 N.ar    1  LGD1       -0.2224
     12  N12        3.5280   -1.4300   -0.5030 N.ar    1  LGD1       -0.2224
     13  C13       -0.5230    4.4800   -2.6490 C.3     1  LGD1        0.0189
     14  C14       -0.8270    3.6580   -1.3880 C.ar    1  LGD1       -0.0227
     15  C15       -1.6210    5.5800   -2.8100 C.3     1  LGD1        0.0044
     16  C16       -0.4680    3.6970   -4.0130 C.3     1  LGD1        0.0044
     17  C17        0.8300    5.1600   -2.6730 C.3     1  LGD1        0.0044
     18  C18        0.1540    3.3630   -0.3720 C.ar    1  LGD1       -0.0029
     19  C19       -2.1270    3.0610   -1.2730 C.ar    1  LGD1       -0.0029
     20  C20       -1.4510    1.9720    0.8310 C.ar    1  LGD1        0.1271
     21  C21       -0.1290    2.4730    0.7040 C.ar    1  LGD1        0.0199
     22  C22       -2.4280    2.2780   -0.1370 C.ar    1  LGD1        0.0199
     23  C23       -0.8140   -1.1840    0.5480 C.ar    1  LGD1        0.2125
     24  C24       -1.1190   -2.2490   -0.2350 C.ar    1  LGD1        0.2327
     25  C25       -0.2610   -2.7270   -1.2750 C.ar    1  LGD1        0.2651
     26  C26        1.1980   -1.0480   -0.5300 C.ar    1  LGD1        0.2028
     27  C27       -3.3080   -2.6450   -1.2120 C.ar    1  LGD1        0.1793
     28  C28        2.5710   -0.4720   -0.5450 C.ar    1  LGD1        0.1990
     29  C29       -0.0310   -3.6890   -3.4570 C.3     1  LGD1        0.2426
     30  C30       -3.5470   -1.4580   -2.0260 C.ar    1  LGD1        0.1730
     31  C31       -4.0820   -3.7780   -1.4710 C.ar    1  LGD1        0.0406
     32  C32       -4.5460   -1.5120   -2.9680 C.ar    1  LGD1        0.0401
     33  C33       -0.5230   -4.8470   -4.3420 C.3     1  LGD1        0.2292
     34  C34       -5.0600   -3.7560   -2.4690 C.ar    1  LGD1        0.0033
     35  C35       -5.2410   -2.6820   -3.2890 C.ar    1  LGD1        0.0033
     36  C36        3.9260    1.3540   -0.9780 C.ar    1  LGD1        0.1023
     37  C37        4.8260   -0.9910   -0.5450 C.ar    1  LGD1        0.1023
     38  C38        4.9700    0.4280   -0.7720 C.ar    1  LGD1        0.0414
     39  C39       -1.9900   -0.1040   -3.0090 C.3     1  LGD1        0.2526
@<TRIPOS>BOND
     1    33     7    1
     2    33    29    1
     3     5    29    1
     4     5    25    1
     5    10    25   ar
     6    10    26   ar
     7    36    11   ar
     8    36    38   ar
     9    11    28   ar
    10    25    24   ar
    11    38    37   ar
    12    34    31   ar
    13    34    35   ar
    14    28    26    1
    15    28    12   ar
    16    26     9   ar
    17    31    27   ar
    18    37    12   ar
    19    24     4    1
    20    24    23   ar
    21     4    27    1
    22    27    30   ar
    23    35    32   ar
    24    15    13    1
    25     9    23   ar
    26    23     8    1
    27    30    32   ar
    28    30     6    1
    29     6    39    1
    30     8     1    1
    31    18    14   ar
    32    18    21   ar
    33    13    14    1
    34    13    17    1
    35    13    16    1
    36    14    19   ar
    37    21    20   ar
    38    20     1    1
    39    20    22   ar
    40    19    22   ar
    41     1     2    2
    42     1     3    2
@<TRIPOS>MOLECULE
156690
 38 41 0 0 0
SMALL
GASTEIGER

@<TRIPOS>ATOM
      1 S          -2.1173   -5.0826   -1.8844 S.O2    1  LIG11       0.0741
      2 O          -1.6435    2.0836   -2.1692 O.2     1  LIG11      -0.2756
      3 O          -0.7798   -4.6645   -2.2441 O.2     1  LIG11      -0.1499
      4 O          -2.7161   -6.2055   -2.5767 O.2     1  LIG11      -0.1499
      5 O           3.2711   -0.0943   -1.1057 O.2     1  LIG11      -0.4436
      6 O          -4.6571   -7.4398    1.1176 O.2     1  LIG11      -0.3578
      7 N          -0.6500    0.8658   -3.8392 N.am    1  LIG11      -0.3002
      8 N          -2.1142   -5.4337   -0.2150 N.pl3   1  LIG11      -0.1965
      9 N           3.2795   -1.3150    0.7939 N.ar    1  LIG11      -0.2175
     10 N          -3.4297   -7.2677    0.5066 N.ar    1  LIG11      -0.0614
     11 C          -0.6103    4.4792   -3.9049 C.3     1  LIG11      -0.0295
     12 C           0.0966    3.2159   -3.3554 C.3     1  LIG11       0.0290
     13 C           0.4714    5.4665   -4.3888 C.3     1  LIG11      -0.0596
     14 C          -1.4286    5.1739   -2.8014 C.3     1  LIG11      -0.0596
     15 C          -1.5329    4.1495   -5.0883 C.3     1  LIG11      -0.0596
     16 C          -0.8165    2.0222   -3.0828 C.2     1  LIG11       0.2161
     17 C          -1.3287   -0.3556   -3.3822 C.3     1  LIG11       0.0400
     18 C          -0.7428   -0.9930   -2.1232 C.ar    1  LIG11      -0.0216
     19 C          -1.4856   -1.9087   -1.3270 C.ar    1  LIG11      -0.0113
     20 C          -2.8531   -2.3627   -1.6893 C.ar    1  LIG11       0.0090
     21 C           0.1511    0.7461   -5.0486 C.3     1  LIG11       0.0035
     22 C           0.5926   -0.6949   -1.7579 C.ar    1  LIG11      -0.0442
     23 C          -3.2206   -3.6877   -2.0181 C.ar    1  LIG11       0.1162
     24 C          -0.8851   -2.3815   -0.1431 C.ar    1  LIG11      -0.0529
     25 C           1.1922   -1.2191   -0.6064 C.ar    1  LIG11       0.0372
     26 C           0.4288   -2.0528    0.2064 C.ar    1  LIG11      -0.0489
     27 C          -3.8885   -1.4020   -1.7148 C.ar    1  LIG11      -0.0521
     28 C          -4.5232   -3.9892   -2.4711 C.ar    1  LIG11      -0.0345
     29 C          -5.1822   -1.7075   -2.1518 C.ar    1  LIG11      -0.0611
     30 C           2.5743   -0.9113   -0.2485 C.ar    1  LIG11       0.2271
     31 C          -5.4948   -2.9985   -2.5502 C.ar    1  LIG11      -0.0599
     32 C          -3.2791   -5.9512    0.3552 C.ar    1  LIG11       0.1837
     33 C          -4.3368   -5.2314    0.9738 C.ar    1  LIG11       0.0342
     34 C          -5.1941   -6.2253    1.3985 C.ar    1  LIG11       0.1390
     35 C          -4.5201   -3.7793    1.1839 C.3     1  LIG11      -0.0330
     36 C           4.5059    0.0081   -0.5423 C.ar    1  LIG11       0.1125
     37 C           4.5082   -0.7344    0.6097 C.ar    1  LIG11       0.0663
     38 C          -6.4990   -6.2176    2.0891 C.3     1  LIG11      -0.0034
@<TRIPOS>BOND
     1     1     3    2
     2     1     4    2
     3     1     8    1
     4     1    23    1
     5     2    16    2
     6     5    30   ar
     7     5    36   ar
     8     6    10   ar
     9     6    34   ar
    10     7    16   am
    11     7    17    1
    12     7    21    1
    13     8    32    1
    14     9    30   ar
    15     9    37   ar
    16    10    32   ar
    17    11    12    1
    18    11    13    1
    19    11    14    1
    20    11    15    1
    21    12    16    1
    22    17    18    1
    23    18    19   ar
    24    18    22   ar
    25    19    20    1
    26    19    24   ar
    27    20    23   ar
    28    20    27   ar
    29    22    25   ar
    30    23    28   ar
    31    24    26   ar
    32    25    26   ar
    33    25    30    1
    34    27    29   ar
    35    28    31   ar
    36    29    31   ar
    37    32    33   ar
    38    33    34   ar
    39    33    35    1
    40    34    38    1
    41    36    37   ar
