@<TRIPOS>MOLECULE
BOSENTAN_50CONFORMERS.pdb
 39 42 0 0 0
SMALL
GASTEIGER

@<TRIPOS>ATOM
      1  S1        -1.8750    0.8810    1.9020 S.O2    1  LGD1        0.0943
      2  O2        -0.4850    1.4330    2.1710 O.2     1  LGD1       -0.1483
      3  O3        -2.7460    1.6410    0.9430 O.2     1  LGD1       -0.1483
      4  O4        -2.5330   -2.8560   -0.2030 O.3     1  LGD1       -0.4427
      5  O5        -0.5660   -3.7320   -2.0750 O.3     1  LGD1       -0.4552
      6  O6        -4.6690   -3.0700    1.4430 O.3     1  LGD1       -0.4684
      7  O7        -0.3610   -6.4310   -3.3060 O.3     1  LGD1       -0.2162
      8  N8        -1.7980   -0.6670    1.3760 N.pl3   1  LGD1       -0.0737
      9  N9         0.3840   -0.5540    0.4060 N.ar    1  LGD1       -0.2027
     10  N10        0.9830   -2.1010   -1.3900 N.ar    1  LGD1       -0.1866
     11  N11        3.0060   -0.2740   -1.9970 N.ar    1  LGD1       -0.2224
     12  N12        2.9650    0.3970    0.3750 N.ar    1  LGD1       -0.2224
     13  C13       -4.6440    0.4700    7.3320 C.3     1  LGD1        0.0189
     14  C14       -3.9960    0.5160    5.9730 C.ar    1  LGD1       -0.0227
     15  C15       -3.7470   -0.0570    8.4350 C.3     1  LGD1        0.0044
     16  C16       -5.7640   -0.5990    7.2780 C.3     1  LGD1        0.0044
     17  C17       -5.2260    1.7760    7.8220 C.3     1  LGD1        0.0044
     18  C18       -4.5650    1.3040    4.9640 C.ar    1  LGD1       -0.0029
     19  C19       -2.9090   -0.2740    5.6350 C.ar    1  LGD1       -0.0029
     20  C20       -2.7790    0.6810    3.4230 C.ar    1  LGD1        0.1271
     21  C21       -3.9880    1.3390    3.7120 C.ar    1  LGD1        0.0199
     22  C22       -2.2050   -0.1300    4.4490 C.ar    1  LGD1        0.0199
     23  C23       -0.8380   -1.1820    0.5410 C.ar    1  LGD1        0.2125
     24  C24       -1.2150   -2.2890   -0.2770 C.ar    1  LGD1        0.2327
     25  C25       -0.1800   -2.7250   -1.2010 C.ar    1  LGD1        0.2651
     26  C26        1.2110   -1.0290   -0.5730 C.ar    1  LGD1        0.2028
     27  C27       -3.7440   -2.2330   -0.5570 C.ar    1  LGD1        0.1793
     28  C28        2.4820   -0.2130   -0.7380 C.ar    1  LGD1        0.1990
     29  C29        0.3370   -4.0520   -3.1670 C.3     1  LGD1        0.2426
     30  C30       -4.8450   -2.2330    0.3130 C.ar    1  LGD1        0.1730
     31  C31       -3.8720   -1.4850   -1.7680 C.ar    1  LGD1        0.0406
     32  C32       -5.9800   -1.5090    0.0290 C.ar    1  LGD1        0.0401
     33  C33       -0.2720   -5.2170   -4.0130 C.3     1  LGD1        0.2292
     34  C34       -5.0220   -0.6910   -2.0130 C.ar    1  LGD1        0.0033
     35  C35       -6.0770   -0.7050   -1.1290 C.ar    1  LGD1        0.0033
     36  C36        4.0770    0.5470   -2.1800 C.ar    1  LGD1        0.1023
     37  C37        4.0400    1.1800    0.2170 C.ar    1  LGD1        0.1023
     38  C38        4.5470    1.2550   -1.1130 C.ar    1  LGD1        0.0414
     39  C39       -5.1820   -2.5490    2.6760 C.3     1  LGD1        0.2526
@<TRIPOS>BOND
     1    33     7    1
     2    33    29    1
     3     5    29    1
     4     5    25    1
     5    10    25   ar
     6    10    26   ar
     7    36    11   ar
     8    36    38   ar
     9    11    28   ar
    10    25    24   ar
    11    38    37   ar
    12    34    31   ar
    13    34    35   ar
    14    28    26    1
    15    28    12   ar
    16    26     9   ar
    17    31    27   ar
    18    37    12   ar
    19    24     4    1
    20    24    23   ar
    21     4    27    1
    22    27    30   ar
    23    35    32   ar
    24    15    13    1
    25     9    23   ar
    26    23     8    1
    27    30    32   ar
    28    30     6    1
    29     6    39    1
    30     8     1    1
    31    18    14   ar
    32    18    21   ar
    33    13    14    1
    34    13    17    1
    35    13    16    1
    36    14    19   ar
    37    21    20   ar
    38    20     1    1
    39    20    22   ar
    40    19    22   ar
    41     1     2    2
    42     1     3    2
@<TRIPOS>MOLECULE
9911482
 30 32 0 0 0
SMALL
GASTEIGER

@<TRIPOS>ATOM
      1 S          -4.5018    1.7530   -2.1424 S.O2    1  LIG11       0.0758
      2 S          -4.8643   -2.0567   -0.2408 S.2     1  LIG11      -0.0902
      3 O          -1.9557    4.3785   -1.9196 O.2     1  LIG11      -0.3377
      4 O          -4.7731    1.6847   -3.5597 O.2     1  LIG11      -0.1499
      5 O          -5.3312    2.5333   -1.2539 O.2     1  LIG11      -0.1499
      6 O          -3.7034    1.5305    0.8286 O.2     1  LIG11      -0.2692
      7 O          -6.5148    1.0314    2.5049 O.2     1  LIG11      -0.2923
      8 N          -4.0606   -0.3930    2.0307 N.am    1  LIG11      -0.2802
      9 N          -2.8738    2.1209   -1.8624 N.pl3   1  LIG11      -0.1831
     10 N          -1.5604    5.3354   -2.8321 N.ar    1  LIG11      -0.0810
     11 C          -3.8601    0.0990    3.3365 C.ar    1  LIG11       0.0471
     12 C          -4.7280    0.1047   -1.6137 C.ar    1  LIG11       0.1277
     13 C          -2.9590   -0.5877    4.1771 C.ar    1  LIG11      -0.0283
     14 C          -4.5821    1.1992    3.8490 C.ar    1  LIG11       0.0388
     15 C          -4.5356   -0.3635   -0.3224 C.ar    1  LIG11       0.1007
     16 C          -3.4377    0.9848    5.9914 C.ar    1  LIG11      -0.0494
     17 C          -2.7559   -0.1282    5.4927 C.ar    1  LIG11      -0.0541
     18 C          -4.3606    1.6355    5.1678 C.ar    1  LIG11      -0.0466
     19 C          -4.1071    0.3683    0.8724 C.2     1  LIG11       0.2568
     20 C          -2.4072    3.2685   -2.5717 C.ar    1  LIG11       0.2399
     21 C          -5.1175   -0.9355   -2.5214 C.ar    1  LIG11      -0.0273
     22 C          -2.2234    3.4445   -3.9306 C.ar    1  LIG11       0.0350
     23 C          -2.1300   -1.7664    3.7370 C.3     1  LIG11      -0.0379
     24 C          -5.7548    1.7738    3.1248 C.2     1  LIG11       0.1619
     25 C          -1.7371    4.7804   -4.0346 C.ar    1  LIG11       0.0854
     26 C          -5.2291   -2.1557   -1.9009 C.ar    1  LIG11      -0.0217
     27 C          -3.2393    1.4360    7.4091 C.3     1  LIG11      -0.0397
     28 C          -2.4485    2.5120   -5.0608 C.3     1  LIG11      -0.0330
     29 C          -1.4220    5.5468   -5.2653 C.3     1  LIG11      -0.0188
     30 C          -6.0351    3.2468    3.2678 C.3     1  LIG11      -0.0013
@<TRIPOS>BOND
     1     1     4    2
     2     1     5    2
     3     1     9    1
     4     1    12    1
     5     2    15   ar
     6     2    26   ar
     7     3    10   ar
     8     3    20   ar
     9     6    19    2
    10     7    24    2
    11     8    11    1
    12     8    19   am
    13     9    20    1
    14    10    25   ar
    15    11    13   ar
    16    11    14   ar
    17    12    15   ar
    18    12    21   ar
    19    13    17   ar
    20    13    23    1
    21    14    18   ar
    22    14    24    1
    23    15    19    1
    24    16    17   ar
    25    16    18   ar
    26    16    27    1
    27    20    22   ar
    28    21    26   ar
    29    22    25   ar
    30    22    28    1
    31    24    30    1
    32    25    29    1
