@<TRIPOS>MOLECULE
BOSENTAN_50CONFORMERS.pdb
 39 42 0 0 0
SMALL
GASTEIGER

@<TRIPOS>ATOM
      1  S1        -2.2100    0.8910    1.6560 S.O2    1  LGD1        0.0943
      2  O2        -3.6490    0.8670    2.0450 O.2     1  LGD1       -0.1483
      3  O3        -1.2600    1.5580    2.5080 O.2     1  LGD1       -0.1483
      4  O4        -2.3850   -2.9130   -0.0870 O.3     1  LGD1       -0.4427
      5  O5        -0.5280   -3.6880   -2.1330 O.3     1  LGD1       -0.4552
      6  O6        -2.6800   -1.2320   -2.4200 O.3     1  LGD1       -0.4684
      7  O7         0.5730   -5.7640   -3.9500 O.3     1  LGD1       -0.2162
      8  N8        -1.7610   -0.7060    1.4300 N.pl3   1  LGD1       -0.0737
      9  N9         0.3420   -0.5020    0.3260 N.ar    1  LGD1       -0.2027
     10  N10        0.9800   -2.1490   -1.2950 N.ar    1  LGD1       -0.1866
     11  N11        2.7090    0.3860   -1.7460 N.ar    1  LGD1       -0.2224
     12  N12        3.3510   -0.5520    0.3280 N.ar    1  LGD1       -0.2224
     13  C13       -1.3880    3.3940   -3.9040 C.3     1  LGD1        0.0189
     14  C14       -1.6690    2.8260   -2.4750 C.ar    1  LGD1       -0.0227
     15  C15       -2.3300    2.9240   -5.0310 C.3     1  LGD1        0.0044
     16  C16        0.0230    3.1680   -4.4080 C.3     1  LGD1        0.0044
     17  C17       -1.6750    4.9520   -3.8190 C.3     1  LGD1        0.0044
     18  C18       -0.6570    2.7740   -1.5080 C.ar    1  LGD1       -0.0029
     19  C19       -2.8800    2.1980   -2.1100 C.ar    1  LGD1       -0.0029
     20  C20       -2.0200    1.6530    0.0630 C.ar    1  LGD1        0.1271
     21  C21       -0.8150    2.2360   -0.2570 C.ar    1  LGD1        0.0199
     22  C22       -3.0480    1.5460   -0.8880 C.ar    1  LGD1        0.0199
     23  C23       -0.8250   -1.1310    0.5010 C.ar    1  LGD1        0.2125
     24  C24       -1.1650   -2.2800   -0.2740 C.ar    1  LGD1        0.2327
     25  C25       -0.2430   -2.7600   -1.1940 C.ar    1  LGD1        0.2651
     26  C26        1.1830   -1.0600   -0.5540 C.ar    1  LGD1        0.2028
     27  C27       -3.1620   -3.2130   -1.1610 C.ar    1  LGD1        0.1793
     28  C28        2.4780   -0.2990   -0.6400 C.ar    1  LGD1        0.1990
     29  C29       -0.3750   -5.1270   -1.7850 C.3     1  LGD1        0.2426
     30  C30       -3.2680   -2.4770   -2.3200 C.ar    1  LGD1        0.1730
     31  C31       -3.9780   -4.3280   -1.0640 C.ar    1  LGD1        0.0406
     32  C32       -4.1070   -2.8440   -3.3820 C.ar    1  LGD1        0.0401
     33  C33       -0.4930   -6.0060   -3.0100 C.3     1  LGD1        0.2292
     34  C34       -4.7580   -4.7850   -2.1190 C.ar    1  LGD1        0.0033
     35  C35       -4.8170   -4.0590   -3.2820 C.ar    1  LGD1        0.0033
     36  C36        3.9930    0.9670   -1.8590 C.ar    1  LGD1        0.1023
     37  C37        4.6300   -0.0210    0.2350 C.ar    1  LGD1        0.1023
     38  C38        4.8980    0.7820   -0.8340 C.ar    1  LGD1        0.0414
     39  C39       -1.8120   -0.9830   -3.6390 C.3     1  LGD1        0.2526
@<TRIPOS>BOND
     1    33     7    1
     2    33    29    1
     3     5    29    1
     4     5    25    1
     5    10    25   ar
     6    10    26   ar
     7    36    11   ar
     8    36    38   ar
     9    11    28   ar
    10    25    24   ar
    11    38    37   ar
    12    34    31   ar
    13    34    35   ar
    14    28    26    1
    15    28    12   ar
    16    26     9   ar
    17    31    27   ar
    18    37    12   ar
    19    24     4    1
    20    24    23   ar
    21     4    27    1
    22    27    30   ar
    23    35    32   ar
    24    15    13    1
    25     9    23   ar
    26    23     8    1
    27    30    32   ar
    28    30     6    1
    29     6    39    1
    30     8     1    1
    31    18    14   ar
    32    18    21   ar
    33    13    14    1
    34    13    17    1
    35    13    16    1
    36    14    19   ar
    37    21    20   ar
    38    20     1    1
    39    20    22   ar
    40    19    22   ar
    41     1     2    2
    42     1     3    2
@<TRIPOS>MOLECULE
3047752
 39 43 0 0 0
SMALL
GASTEIGER

@<TRIPOS>ATOM
      1 O          -1.7684   -0.8569   -5.5177 O.co2   1  LIG11      -0.5495
      2 O          -0.6660   -1.9142   -3.8303 O.co2   1  LIG11      -0.5495
      3 O          -5.4531   -4.2159    0.0934 O.3     1  LIG11      -0.4526
      4 O          -4.7027   -6.2540   -0.9613 O.3     1  LIG11      -0.4526
      5 O          -0.4274    3.8078    0.9632 O.3     1  LIG11      -0.4951
      6 O          -2.3284    5.7032   -5.7147 O.co2   1  LIG11      -0.5495
      7 O          -0.1085    6.1981   -5.6339 O.co2   1  LIG11      -0.5495
      8 N          -5.0806    1.9942   -2.8866 N.ar    1  LIG11      -0.2556
      9 C          -2.6242   -0.7204   -3.3052 C.3     1  LIG11       0.0217
     10 C          -2.8537    0.8182   -3.3108 C.3     1  LIG11       0.0357
     11 C          -3.9400   -1.3998   -3.7615 C.3     1  LIG11       0.0199
     12 C          -4.9648   -0.3328   -3.4972 C.ar    1  LIG11      -0.0174
     13 C          -4.3754    0.8839   -3.1925 C.ar    1  LIG11       0.0534
     14 C          -2.1516    1.6536   -2.2306 C.ar    1  LIG11      -0.0344
     15 C          -4.1742   -2.7149   -3.0178 C.ar    1  LIG11      -0.0356
     16 C          -1.5750   -1.1762   -4.3140 C.2     1  LIG11       0.0466
     17 C          -6.3460   -0.4240   -3.5639 C.ar    1  LIG11      -0.0546
     18 C          -1.8384    3.0253   -2.4195 C.ar    1  LIG11      -0.0395
     19 C          -1.8754    1.0960   -0.9645 C.ar    1  LIG11      -0.0542
     20 C          -6.4299    1.8911   -2.9173 C.ar    1  LIG11       0.0416
     21 C          -4.7575   -2.7645   -1.7379 C.ar    1  LIG11      -0.0124
     22 C          -7.0931    0.7100   -3.2639 C.ar    1  LIG11      -0.0401
     23 C          -3.7217   -3.9172   -3.6135 C.ar    1  LIG11      -0.0543
     24 C          -2.1338    3.8174   -3.6938 C.3     1  LIG11      -0.0196
     25 C          -1.2583    3.7619   -1.3554 C.ar    1  LIG11      -0.0165
     26 C          -7.2081    3.1193   -2.5243 C.3     1  LIG11      -0.0104
     27 C          -0.8687    4.3143   -4.4150 C.3     1  LIG11      -0.0003
     28 C          -4.9013   -3.9942   -1.1309 C.ar    1  LIG11       0.1665
     29 C          -1.2873    1.8403    0.0636 C.ar    1  LIG11      -0.0197
     30 C          -3.8749   -5.1503   -2.9712 C.ar    1  LIG11      -0.0159
     31 C          -0.9776    3.1797   -0.1223 C.ar    1  LIG11       0.1204
     32 C          -4.4744   -5.1554   -1.7321 C.ar    1  LIG11       0.1662
     33 C          -7.3339    3.2911   -1.0061 C.3     1  LIG11      -0.0479
     34 C          -0.2139    3.2077   -5.2358 C.3     1  LIG11      -0.0570
     35 C          -8.2148    2.2248   -0.3466 C.3     1  LIG11      -0.0556
     36 C          -1.1342    5.5048   -5.3551 C.2     1  LIG11       0.0449
     37 C          -5.2861   -5.6416    0.2055 C.3     1  LIG11       0.2332
     38 C          -8.4161    2.5038    1.1345 C.3     1  LIG11      -0.0653
     39 C          -0.1509    5.1937    0.8082 C.3     1  LIG11       0.0788
@<TRIPOS>BOND
     1     1    16   ar
     2     2    16   ar
     3     3    28    1
     4     3    37    1
     5     4    32    1
     6     4    37    1
     7     5    31    1
     8     5    39    1
     9     6    36   ar
    10     7    36   ar
    11     8    13   ar
    12     8    20   ar
    13     9    10    1
    14     9    11    1
    15     9    16    1
    16    10    13    1
    17    10    14    1
    18    11    12    1
    19    11    15    1
    20    12    13   ar
    21    12    17   ar
    22    14    18   ar
    23    14    19   ar
    24    15    21   ar
    25    15    23   ar
    26    17    22   ar
    27    18    24    1
    28    18    25   ar
    29    19    29   ar
    30    20    22   ar
    31    20    26    1
    32    21    28   ar
    33    23    30   ar
    34    24    27    1
    35    25    31   ar
    36    26    33    1
    37    27    34    1
    38    27    36    1
    39    28    32   ar
    40    29    31   ar
    41    30    32   ar
    42    33    35    1
    43    35    38    1
