@<TRIPOS>MOLECULE
BOSENTAN_50CONFORMERS.pdb
 39 42 0 0 0
SMALL
GASTEIGER

@<TRIPOS>ATOM
      1  S1        -1.7320    0.1810    2.7740 S.O2    1  LGD1        0.0943
      2  O2        -0.6960    1.2920    2.6760 O.2     1  LGD1       -0.1483
      3  O3        -3.1660    0.4740    3.1050 O.2     1  LGD1       -0.1483
      4  O4        -2.3360   -2.8310   -0.1550 O.3     1  LGD1       -0.4427
      5  O5        -0.5580   -3.7380   -2.0900 O.3     1  LGD1       -0.4552
      6  O6        -0.9690   -4.7980    1.3410 O.3     1  LGD1       -0.4684
      7  O7        -1.3050   -6.4250   -3.2420 O.3     1  LGD1       -0.2162
      8  N8        -1.8450   -0.7360    1.3820 N.pl3   1  LGD1       -0.0737
      9  N9         0.3600   -0.5250    0.3520 N.ar    1  LGD1       -0.2027
     10  N10        0.9940   -2.1270   -1.4120 N.ar    1  LGD1       -0.1866
     11  N11        3.2240   -0.0770    0.4700 N.ar    1  LGD1       -0.2224
     12  N12        2.9320   -0.2110   -1.9940 N.ar    1  LGD1       -0.2224
     13  C13        0.3330   -3.7610    6.9160 C.3     1  LGD1        0.0189
     14  C14       -0.1710   -2.7530    5.8960 C.ar    1  LGD1       -0.0227
     15  C15        1.9150   -3.6670    7.0730 C.3     1  LGD1        0.0044
     16  C16       -0.0880   -5.2180    6.4090 C.3     1  LGD1        0.0044
     17  C17       -0.1450   -3.4970    8.3540 C.3     1  LGD1        0.0044
     18  C18       -1.5460   -2.5790    5.6760 C.ar    1  LGD1       -0.0029
     19  C19        0.7010   -2.0420    5.0230 C.ar    1  LGD1       -0.0029
     20  C20       -1.0980   -0.9700    3.9420 C.ar    1  LGD1        0.1271
     21  C21       -2.0580   -1.7110    4.6910 C.ar    1  LGD1        0.0199
     22  C22        0.2280   -1.1340    4.0490 C.ar    1  LGD1        0.0199
     23  C23       -0.8400   -1.1220    0.5410 C.ar    1  LGD1        0.2125
     24  C24       -1.1130   -2.2400   -0.2200 C.ar    1  LGD1        0.2327
     25  C25       -0.2440   -2.6980   -1.2050 C.ar    1  LGD1        0.2651
     26  C26        1.2290   -1.0910   -0.5400 C.ar    1  LGD1        0.2028
     27  C27       -2.8490   -3.3340    1.0040 C.ar    1  LGD1        0.1793
     28  C28        2.5950   -0.3870   -0.6740 C.ar    1  LGD1        0.1990
     29  C29        0.1070   -5.0070   -1.8720 C.3     1  LGD1        0.2426
     30  C30       -2.1780   -4.2910    1.7990 C.ar    1  LGD1        0.1730
     31  C31       -4.1470   -2.9820    1.4140 C.ar    1  LGD1        0.0406
     32  C32       -2.7210   -4.7500    3.0210 C.ar    1  LGD1        0.0401
     33  C33        0.0330   -5.8910   -3.1100 C.3     1  LGD1        0.2292
     34  C34       -4.7120   -3.4180    2.6420 C.ar    1  LGD1        0.0033
     35  C35       -3.9630   -4.2770    3.4700 C.ar    1  LGD1        0.0033
     36  C36        4.4920    0.4060    0.1910 C.ar    1  LGD1        0.1023
     37  C37        4.1020    0.5310   -2.1760 C.ar    1  LGD1        0.1023
     38  C38        4.8620    0.8340   -1.1080 C.ar    1  LGD1        0.0414
     39  C39        0.0660   -4.8260    2.3080 C.3     1  LGD1        0.2526
@<TRIPOS>BOND
     1    33     7    1
     2    33    29    1
     3     5    29    1
     4     5    25    1
     5    10    25   ar
     6    10    26   ar
     7    36    11   ar
     8    36    38   ar
     9    11    28   ar
    10    25    24   ar
    11    38    37   ar
    12    34    31   ar
    13    34    35   ar
    14    28    26    1
    15    28    12   ar
    16    26     9   ar
    17    31    27   ar
    18    37    12   ar
    19    24     4    1
    20    24    23   ar
    21     4    27    1
    22    27    30   ar
    23    35    32   ar
    24    15    13    1
    25     9    23   ar
    26    23     8    1
    27    30    32   ar
    28    30     6    1
    29     6    39    1
    30     8     1    1
    31    18    14   ar
    32    18    21   ar
    33    13    14    1
    34    13    17    1
    35    13    16    1
    36    14    19   ar
    37    21    20   ar
    38    20     1    1
    39    20    22   ar
    40    19    22   ar
    41     1     2    2
    42     1     3    2
@<TRIPOS>MOLECULE
HTS1204-03362316-01
 44 47 0 0 0
SMALL
USER_CHARGES

@<TRIPOS>ATOM
      1 C1         -3.1686   -5.4039    3.1878 C.ar    1  UNK11      -0.0199
      2 N1         -4.7176   -3.9826    3.9449 N.ar    1  UNK11      -0.3494
      3 C2          3.8187   -4.0217    1.5406 C.2     1  UNK11       0.3028
      4 C3         -4.0796   -5.1624    4.1981 C.ar    1  UNK11       0.0086
      5 C4         -0.6970   -5.9536    5.0555 C.2     1  UNK11       0.2342
      6 C5         -3.2920   -4.3147    2.2630 C.ar    1  UNK11       0.0031
      7 C6          1.0672   -5.7314    2.0454 C.2     1  UNK11       0.2340
      8 C7         -4.2398   -3.4235    2.7803 C.ar    1  UNK11       0.0491
      9 N2          2.4708   -3.7575    1.5102 N.am    1  UNK11      -0.2879
     10 N3          4.5690   -3.0266    2.1584 N.am    1  UNK11      -0.2856
     11 N4         -0.1203   -5.4297    2.6790 N.am    1  UNK11      -0.3022
     12 N5          0.5047   -5.3595    5.3750 N.am    1  UNK11      -0.3054
     13 C8         -0.8041   -6.3722    3.5745 C.3     1  UNK11       0.1034
     14 C9          1.4717   -4.6919    0.9814 C.3     1  UNK11       0.1011
     15 C10         0.8518   -4.9110    6.7425 C.3     1  UNK11       0.0680
     16 C11        -2.2591   -6.6040    3.1178 C.3     1  UNK11       0.0013
     17 C12         2.2477   -5.4320    7.1914 C.2     1  UNK11       0.0623
     18 C13         1.0688   -3.3908    6.8034 C.3     1  UNK11       0.0133
     19 O1          4.3302   -5.0195    1.0431 O.2     1  UNK11      -0.2526
     20 O2          1.7083   -6.7462    2.2894 O.2     1  UNK11      -0.2738
     21 O3         -1.5620   -6.2297    5.8842 O.2     1  UNK11      -0.2738
     22 N6         -1.0007   -2.1397    7.2455 N.ar    1  UNK11      -0.2598
     23 O4          3.0411   -5.6688    6.2279 O.co2   1  UNK11      -0.5479
     24 C14         1.8342   -5.3548   -0.3626 C.3     1  UNK11      -0.0236
     25 C15        -0.1170   -2.5881    6.3198 C.ar    1  UNK11       0.0434
     26 O5          2.4367   -5.5317    8.4348 O.co2   1  UNK11      -0.5479
     27 C16        -5.7470   -3.4158    4.7853 C.3     1  UNK11       0.0119
     28 C17         4.1054   -1.6457    2.3272 C.3     1  UNK11       0.0161
     29 C18         5.9455   -3.3437    2.5215 C.3     1  UNK11       0.0161
     30 C19        -4.5610   -2.2142    2.1414 C.ar    1  UNK11      -0.0376
     31 C20        -2.6745   -3.9925    1.0356 C.ar    1  UNK11      -0.0523
     32 C21         0.6395   -6.0111   -1.0994 C.3     1  UNK11      -0.0446
     33 C22        -2.0768   -1.4617    6.7936 C.ar    1  UNK11       0.0279
     34 C23        -0.2749   -2.3317    4.9556 C.ar    1  UNK11      -0.0403
     35 C24         0.2492   -7.3757   -0.5213 C.3     1  UNK11      -0.0626
     36 C25         0.9859   -6.1921   -2.5807 C.3     1  UNK11      -0.0626
     37 C26         5.2055   -0.5895    2.4753 C.3     1  UNK11      -0.0371
     38 C27         6.9633   -2.9200    1.4604 C.3     1  UNK11      -0.0371
     39 C28        -2.9788   -2.7862    0.3952 C.ar    1  UNK11      -0.0611
     40 C29        -3.9053   -1.9072    0.9469 C.ar    1  UNK11      -0.0598
     41 C30        -2.3129   -1.1820    5.4583 C.ar    1  UNK11      -0.0436
     42 C31        -1.3894   -1.6249    4.5228 C.ar    1  UNK11      -0.0586
     43 C32         6.1619   -0.4637    1.2865 C.3     1  UNK11      -0.0516
     44 C33         6.5430   -1.7548    0.5651 C.3     1  UNK11      -0.0516
@<TRIPOS>BOND
     1     2     4   ar
     2     3     9   am
     3     1     4   ar
     4     5    13    1
     5     1     6   ar
     6     7    11   am
     7     6     8   ar
     8     9    14    1
     9     3    10   am
    10    11    13    1
    11     5    12   am
    12    13    16    1
    13     7    14    1
    14    12    15    1
    15     1    16    1
    16    15    17    1
    17    15    18    1
    18     3    19    2
    19     7    20    2
    20     5    21    2
    21    22    25   ar
    22    17    23   ar
    23    14    24    1
    24    18    25    1
    25    17    26   ar
    26     2    27    1
    27    10    28    1
    28    10    29    1
    29     8    30   ar
    30     6    31   ar
    31    24    32    1
    32    22    33   ar
    33    25    34   ar
    34    32    35    1
    35    32    36    1
    36    28    37    1
    37    29    38    1
    38    31    39   ar
    39    39    40   ar
    40    41    42   ar
    41    34    42   ar
    42    37    43    1
    43    38    44    1
    44     2     8   ar
    45    30    40   ar
    46    33    41   ar
    47    43    44    1
