@<TRIPOS>MOLECULE
BOSENTAN_50CONFORMERS.pdb
 39 42 0 0 0
SMALL
GASTEIGER

@<TRIPOS>ATOM
      1  S1        -1.3920    0.1130    2.7830 S.O2    1  LGD1        0.0943
      2  O2        -0.7240   -0.9390    3.6320 O.2     1  LGD1       -0.1483
      3  O3        -0.6510    1.3520    2.3260 O.2     1  LGD1       -0.1483
      4  O4        -2.4270   -2.8540   -0.2230 O.3     1  LGD1       -0.4427
      5  O5        -0.4910   -3.8040   -1.9810 O.3     1  LGD1       -0.4552
      6  O6        -0.6620   -4.5490    1.1140 O.3     1  LGD1       -0.4684
      7  O7        -0.5420   -5.1280   -5.0100 O.3     1  LGD1       -0.2162
      8  N8        -1.7570   -0.7460    1.4390 N.pl3   1  LGD1       -0.0737
      9  N9         0.3560   -0.5420    0.4180 N.ar    1  LGD1       -0.2027
     10  N10        0.9740   -2.1170   -1.3820 N.ar    1  LGD1       -0.1866
     11  N11        2.5870    0.1690   -2.2190 N.ar    1  LGD1       -0.2224
     12  N12        3.0570    0.1440    0.2340 N.ar    1  LGD1       -0.2224
     13  C13       -6.5500    1.6860    5.8280 C.3     1  LGD1        0.0189
     14  C14       -5.2870    1.2960    4.9490 C.ar    1  LGD1       -0.0227
     15  C15       -6.1970    1.9330    7.3590 C.3     1  LGD1        0.0044
     16  C16       -7.5170    0.4820    5.8200 C.3     1  LGD1        0.0044
     17  C17       -7.4280    2.8470    5.3990 C.3     1  LGD1        0.0044
     18  C18       -4.9800    1.9300    3.7750 C.ar    1  LGD1       -0.0029
     19  C19       -4.4450    0.2370    5.3770 C.ar    1  LGD1       -0.0029
     20  C20       -2.9230    0.4990    3.4880 C.ar    1  LGD1        0.1271
     21  C21       -3.7390    1.6450    3.1250 C.ar    1  LGD1        0.0199
     22  C22       -3.3600   -0.2190    4.6180 C.ar    1  LGD1        0.0199
     23  C23       -0.7890   -1.1580    0.5040 C.ar    1  LGD1        0.2125
     24  C24       -1.2210   -2.1570   -0.3740 C.ar    1  LGD1        0.2327
     25  C25       -0.2720   -2.6980   -1.2850 C.ar    1  LGD1        0.2651
     26  C26        1.1820   -1.0540   -0.5320 C.ar    1  LGD1        0.2028
     27  C27       -2.7750   -3.3860    1.0130 C.ar    1  LGD1        0.1793
     28  C28        2.3360   -0.1700   -0.8770 C.ar    1  LGD1        0.1990
     29  C29       -1.2370   -3.4560   -3.1890 C.3     1  LGD1        0.2426
     30  C30       -1.8930   -4.2200    1.7520 C.ar    1  LGD1        0.1730
     31  C31       -3.9670   -2.9860    1.5410 C.ar    1  LGD1        0.0406
     32  C32       -2.3040   -4.6830    3.0280 C.ar    1  LGD1        0.0401
     33  C33       -1.5920   -4.6880   -4.0550 C.3     1  LGD1        0.2292
     34  C34       -4.4070   -3.5290    2.7460 C.ar    1  LGD1        0.0033
     35  C35       -3.5620   -4.4230    3.4670 C.ar    1  LGD1        0.0033
     36  C36        3.6200    0.9930   -2.3960 C.ar    1  LGD1        0.1023
     37  C37        4.2410    0.8150   -0.0070 C.ar    1  LGD1        0.1023
     38  C38        4.3530    1.3790   -1.2630 C.ar    1  LGD1        0.0414
     39  C39        0.1300   -5.5850    1.8140 C.3     1  LGD1        0.2526
@<TRIPOS>BOND
     1    33     7    1
     2    33    29    1
     3     5    29    1
     4     5    25    1
     5    10    25   ar
     6    10    26   ar
     7    36    11   ar
     8    36    38   ar
     9    11    28   ar
    10    25    24   ar
    11    38    37   ar
    12    34    31   ar
    13    34    35   ar
    14    28    26    1
    15    28    12   ar
    16    26     9   ar
    17    31    27   ar
    18    37    12   ar
    19    24     4    1
    20    24    23   ar
    21     4    27    1
    22    27    30   ar
    23    35    32   ar
    24    15    13    1
    25     9    23   ar
    26    23     8    1
    27    30    32   ar
    28    30     6    1
    29     6    39    1
    30     8     1    1
    31    18    14   ar
    32    18    21   ar
    33    13    14    1
    34    13    17    1
    35    13    16    1
    36    14    19   ar
    37    21    20   ar
    38    20     1    1
    39    20    22   ar
    40    19    22   ar
    41     1     2    2
    42     1     3    2
@<TRIPOS>MOLECULE
123882
 66 71 0 0 0
SMALL
GASTEIGER

@<TRIPOS>ATOM
      1 S          -3.9244   -3.2649    0.8083 S.2     3  UNK33      -0.0993
      2 O         -10.5436    4.4792   -2.5699 O.2     1  UNK11      -0.2755
      3 O          -9.7647   -0.1823    6.3400 O.2     4  LEU44      -0.2738
      4 O          -6.5830    1.6361   -1.5272 O.2     1  UNK11      -0.2737
      5 O          -8.6947    1.0421    2.6792 O.2     5  TRP55      -0.2738
      6 O          -8.1615    4.1270    0.8602 O.2     6  ASP66      -0.2738
      7 O          -7.0081   -3.7411    4.3355 O.2     3  UNK33      -0.2734
      8 O          -8.7532   -2.2409    0.7552 O.2     2  ASP22      -0.2737
      9 OD1       -11.3201    4.3969    4.5234 O.co2   6  ASP66      -0.5497
     10 OD2       -13.1036    4.4880    3.0915 O.co2   6  ASP66      -0.5497
     11 OD1        -6.7102   -1.6614   -3.8758 O.co2   2  ASP22      -0.5497
     12 OD2        -8.7815   -0.6854   -3.9227 O.co2   2  ASP22      -0.5497
     13 N         -11.5963    3.0166   -3.9663 N.am    1  UNK11      -0.2984
     14 N         -14.1216    2.2266   -5.2141 N.pl3   1  UNK11      -0.3269
     15 N          -9.6280    2.6859   -0.1654 N.am    1  UNK11      -0.3020
     16 N          -7.9091    0.2742    5.0870 N.am    5  TRP55      -0.3022
     17 N          -8.0884   -1.8852    3.5878 N.am    4  LEU44      -0.3022
     18 N          -9.2774    3.1645    3.3285 N.am    6  ASP66      -0.3021
     19 N          -8.2693    0.2557   -0.8044 N.am    2  ASP22      -0.3021
     20 N          -6.5737   -1.7998    1.2046 N.am    3  UNK33      -0.2984
     21 NE1        -4.2860    1.9438    2.5681 N.ar    5  TRP55      -0.3604
     22 C         -12.6520    3.9982   -4.2234 C.3     1  UNK11       0.0304
     23 C         -11.6870    1.7556   -4.7207 C.3     1  UNK11       0.0304
     24 C         -13.5979    3.5992   -5.3657 C.3     1  UNK11       0.0280
     25 C         -13.1295    1.2136   -4.7475 C.3     1  UNK11       0.0280
     26 C         -10.6223    3.3398   -3.0300 C.2     1  UNK11       0.2179
     27 C          -9.6900    2.2251   -2.6010 C.3     1  UNK11       0.0510
     28 C          -8.8260    2.5832   -1.3882 C.3     1  UNK11       0.1076
     29 CA         -9.0844   -1.8451    4.6755 C.3     4  LEU44       0.0997
     30 CB        -10.4814   -2.0506    4.0560 C.3     4  LEU44      -0.0236
     31 CA         -8.1248    1.7148    4.9530 C.3     5  TRP55       0.1034
     32 C         -15.4113    2.0144   -4.7102 C.ar    1  UNK11       0.0298
     33 CG        -11.6796   -2.1523    5.0221 C.3     4  LEU44      -0.0446
     34 CB         -6.8394    2.5225    5.1631 C.3     5  TRP55       0.0013
     35 C          -8.9840   -0.5115    5.4504 C.2     4  LEU44       0.2340
     36 CA        -10.1055    3.3728    2.1431 C.3     6  ASP66       0.1045
     37 C          -7.7613    1.4749   -1.2118 C.2     1  UNK11       0.2344
     38 CG         -5.6875    2.0986    4.2961 C.ar    5  TRP55      -0.0201
     39 C          -8.7174    1.9262    3.5412 C.2     5  TRP55       0.2343
     40 C          -9.1856    3.4457    0.9036 C.2     6  ASP66       0.2343
     41 CA         -7.5273   -0.9893   -0.9384 C.3     2  ASP22       0.1045
     42 CD2       -11.4850   -3.2154    6.1013 C.3     4  LEU44      -0.0626
     43 CD1       -12.9585   -2.4464    4.2297 C.3     4  LEU44      -0.0626
     44 C          -6.4122   -2.9619    2.0785 C.3     3  UNK33       0.1311
     45 C         -16.0573    0.7901   -4.9581 C.ar    1  UNK11      -0.0407
     46 C         -16.1132    2.9599   -3.9495 C.ar    1  UNK11      -0.0407
     47 CD2        -4.7107    1.0895    4.5822 C.ar    5  TRP55       0.0029
     48 C          -7.1569   -2.8920    3.4537 C.2     3  UNK33       0.2390
     49 CB        -10.9186    4.6580    2.2237 C.3     6  ASP66       0.0138
     50 CD1        -5.3825    2.6046    3.0486 C.ar    5  TRP55       0.0060
     51 CE2        -3.8403    1.0275    3.4927 C.ar    5  TRP55       0.0467
     52 C          -7.6871   -1.7442    0.3940 C.2     2  ASP22       0.2345
     53 CB         -8.1227   -1.8868   -2.0178 C.3     2  ASP22       0.0138
     54 C         -17.3377    0.5170   -4.4651 C.ar    1  UNK11      -0.0600
     55 C         -17.3928    2.6913   -3.4467 C.ar    1  UNK11      -0.0600
     56 C          -4.9269   -3.2776    2.2204 C.ar    3  UNK33       0.0189
     57 CE3        -4.4971    0.2093    5.6638 C.ar    5  TRP55      -0.0523
     58 C         -18.0056    1.4694   -3.7046 C.ar    1  UNK11      -0.0616
     59 CZ2        -2.7532    0.1469    3.4432 C.ar    5  TRP55      -0.0378
     60 CG        -11.8794    4.5015    3.3895 C.2     6  ASP66       0.0440
     61 CZ3        -3.4183   -0.6805    5.6288 C.ar    5  TRP55      -0.0611
     62 C          -4.1859   -3.6761    3.3211 C.ar    3  UNK33      -0.0493
     63 CH2        -2.5539   -0.7007    4.5374 C.ar    5  TRP55      -0.0598
     64 CG         -7.8344   -1.3360   -3.3984 C.2     2  ASP22       0.0440
     65 C          -2.8252   -3.9687    3.0087 C.ar    3  UNK33      -0.0544
     66 C          -2.5473   -3.7660    1.6790 C.ar    3  UNK33      -0.0240
@<TRIPOS>BOND
     1     1    56   ar
     2     1    66   ar
     3     2    26    2
     4     3    35    2
     5     4    37    2
     6     5    39    2
     7     6    40    2
     8     7    48    2
     9     8    52    2
    10     9    60   ar
    11    10    60   ar
    12    11    64   ar
    13    12    64   ar
    14    13    22    1
    15    13    23    1
    16    14    24    1
    17    14    25    1
    18    14    32    1
    19    15    28    1
    20    15    40   am
    21    16    35   am
    22    16    31    1
    23    17    48   am
    24    17    29    1
    25    18    39   am
    26    18    36    1
    27    19    37   am
    28    19    41    1
    29    20    52   am
    30    20    44    1
    31    21    50   ar
    32    21    51   ar
    33    22    24    1
    34    23    25    1
    35    26    27    1
    36    26    13   am
    37    28    37    1
    38    28    27    1
    39    29    35    1
    40    29    30    1
    41    30    33    1
    42    31    39    1
    43    31    34    1
    44    32    45   ar
    45    32    46   ar
    46    33    43    1
    47    33    42    1
    48    34    38    1
    49    36    40    1
    50    36    49    1
    51    38    47   ar
    52    38    50   ar
    53    41    52    1
    54    41    53    1
    55    44    48    1
    56    44    56    1
    57    45    54   ar
    58    46    55   ar
    59    47    57   ar
    60    47    51   ar
    61    49    60    1
    62    51    59   ar
    63    53    64    1
    64    54    58   ar
    65    55    58   ar
    66    56    62   ar
    67    57    61   ar
    68    59    63   ar
    69    61    63   ar
    70    62    65   ar
    71    65    66   ar
