@<TRIPOS>MOLECULE
BOSENTAN_50CONFORMERS.pdb
 39 42 0 0 0
SMALL
GASTEIGER

@<TRIPOS>ATOM
      1  S1        -2.0560   -1.4610    2.8810 S.O2    1  LGD1        0.0943
      2  O2        -0.8990   -2.3680    3.2090 O.2     1  LGD1       -0.1483
      3  O3        -2.4200   -0.4140    3.8230 O.2     1  LGD1       -0.1483
      4  O4        -2.3320   -2.9890   -0.1340 O.3     1  LGD1       -0.4427
      5  O5        -0.4970   -3.8090   -2.0690 O.3     1  LGD1       -0.4552
      6  O6        -3.9860   -5.3620    0.0060 O.3     1  LGD1       -0.4684
      7  O7         0.3320   -6.9540   -2.4540 O.3     1  LGD1       -0.2162
      8  N8        -1.7690   -0.6590    1.4520 N.pl3   1  LGD1       -0.0737
      9  N9         0.3530   -0.5580    0.4230 N.ar    1  LGD1       -0.2027
     10  N10        0.9240   -2.0350   -1.4040 N.ar    1  LGD1       -0.1866
     11  N11        3.3630   -0.2270    0.3700 N.ar    1  LGD1       -0.2224
     12  N12        2.7510    0.2090   -1.9690 N.ar    1  LGD1       -0.2224
     13  C13       -7.1530   -4.9520    2.3110 C.3     1  LGD1        0.0189
     14  C14       -5.8520   -4.0580    2.3200 C.ar    1  LGD1       -0.0227
     15  C15       -8.3620   -4.4250    1.4920 C.3     1  LGD1        0.0044
     16  C16       -7.6960   -5.0760    3.7560 C.3     1  LGD1        0.0044
     17  C17       -7.0150   -6.3400    1.7800 C.3     1  LGD1        0.0044
     18  C18       -5.8210   -2.7550    1.8390 C.ar    1  LGD1       -0.0029
     19  C19       -4.6480   -4.5640    2.8930 C.ar    1  LGD1       -0.0029
     20  C20       -3.5450   -2.4090    2.7000 C.ar    1  LGD1        0.1271
     21  C21       -4.6590   -1.9230    2.0210 C.ar    1  LGD1        0.0199
     22  C22       -3.5970   -3.7330    3.1810 C.ar    1  LGD1        0.0199
     23  C23       -0.8450   -1.1280    0.4850 C.ar    1  LGD1        0.2125
     24  C24       -1.1770   -2.2480   -0.3110 C.ar    1  LGD1        0.2327
     25  C25       -0.2350   -2.7400   -1.2460 C.ar    1  LGD1        0.2651
     26  C26        1.2270   -1.1000   -0.5220 C.ar    1  LGD1        0.2028
     27  C27       -3.3420   -3.2360   -1.0480 C.ar    1  LGD1        0.1793
     28  C28        2.5480   -0.3500   -0.6920 C.ar    1  LGD1        0.1990
     29  C29        0.6420   -4.5970   -2.4000 C.3     1  LGD1        0.2426
     30  C30       -4.1550   -4.4210   -0.9830 C.ar    1  LGD1        0.1730
     31  C31       -3.7400   -2.3120   -1.9890 C.ar    1  LGD1        0.0406
     32  C32       -5.2240   -4.6590   -1.8470 C.ar    1  LGD1        0.0401
     33  C33        0.2000   -5.7690   -3.2720 C.3     1  LGD1        0.2292
     34  C34       -4.7440   -2.5460   -2.9080 C.ar    1  LGD1        0.0033
     35  C35       -5.5200   -3.6380   -2.7300 C.ar    1  LGD1        0.0033
     36  C36        4.4550    0.5710    0.2580 C.ar    1  LGD1        0.1023
     37  C37        3.8150    0.9230   -2.1400 C.ar    1  LGD1        0.1023
     38  C38        4.6210    1.0770   -1.0070 C.ar    1  LGD1        0.0414
     39  C39       -2.6280   -5.9990    0.0800 C.3     1  LGD1        0.2526
@<TRIPOS>BOND
     1    33     7    1
     2    33    29    1
     3     5    29    1
     4     5    25    1
     5    10    25   ar
     6    10    26   ar
     7    36    11   ar
     8    36    38   ar
     9    11    28   ar
    10    25    24   ar
    11    38    37   ar
    12    34    31   ar
    13    34    35   ar
    14    28    26    1
    15    28    12   ar
    16    26     9   ar
    17    31    27   ar
    18    37    12   ar
    19    24     4    1
    20    24    23   ar
    21     4    27    1
    22    27    30   ar
    23    35    32   ar
    24    15    13    1
    25     9    23   ar
    26    23     8    1
    27    30    32   ar
    28    30     6    1
    29     6    39    1
    30     8     1    1
    31    18    14   ar
    32    18    21   ar
    33    13    14    1
    34    13    17    1
    35    13    16    1
    36    14    19   ar
    37    21    20   ar
    38    20     1    1
    39    20    22   ar
    40    19    22   ar
    41     1     2    2
    42     1     3    2
@<TRIPOS>MOLECULE
HTS1204-03362316-01
 44 47 0 0 0
SMALL
USER_CHARGES

@<TRIPOS>ATOM
      1 C1         -3.7977   -4.7996    3.5277 C.ar    1  UNK11      -0.0199
      2 N1         -5.8036   -4.8867    2.5474 N.ar    1  UNK11      -0.3494
      3 C2         -1.4205   -1.9593    5.9235 C.2     1  UNK11       0.3028
      4 C3         -4.9093   -5.5877    3.3011 C.ar    1  UNK11       0.0086
      5 C4         -1.0678   -6.0032    2.3003 C.2     1  UNK11       0.2342
      6 C5         -4.0781   -3.5300    2.9210 C.ar    1  UNK11       0.0031
      7 C6          0.8699   -4.8714    5.0732 C.2     1  UNK11       0.2340
      8 C7         -5.3559   -3.6007    2.3552 C.ar    1  UNK11       0.0491
      9 N2         -0.6211   -3.0373    5.8756 N.am    1  UNK11      -0.2879
     10 N3         -1.2342   -0.8440    5.1494 N.am    1  UNK11      -0.2856
     11 N4         -0.1387   -5.5763    4.4853 N.am    1  UNK11      -0.3022
     12 N5         -1.8110   -5.6312    1.2052 N.am    1  UNK11      -0.3054
     13 C8         -1.2181   -5.1116    3.5693 C.3     1  UNK11       0.1034
     14 C9          0.7088   -3.3590    5.3685 C.3     1  UNK11       0.1011
     15 C10        -1.9443   -6.5108    0.0171 C.3     1  UNK11       0.0680
     16 C11        -2.5781   -5.2813    4.2564 C.3     1  UNK11       0.0013
     17 C12        -3.1811   -7.4656    0.0319 C.2     1  UNK11       0.0623
     18 C13        -1.8825   -5.6996   -1.2877 C.3     1  UNK11       0.0133
     19 O1         -2.3696   -2.0590    6.7080 O.2     1  UNK11      -0.2526
     20 O2          1.9364   -5.4581    5.2741 O.2     1  UNK11      -0.2738
     21 O3         -0.2541   -6.9318    2.2804 O.2     1  UNK11      -0.2738
     22 N6         -2.3629   -3.3020   -1.4187 N.ar    1  UNK11      -0.2598
     23 O4         -3.8106   -7.5481    1.1264 O.co2   1  UNK11      -0.5479
     24 C14         1.8090   -2.8359    6.3298 C.3     1  UNK11      -0.0236
     25 C15        -2.8733   -4.5634   -1.4217 C.ar    1  UNK11       0.0434
     26 O5         -3.4504   -8.0354   -1.0671 O.co2   1  UNK11      -0.5479
     27 C16        -7.0036   -5.4509    1.9753 C.3     1  UNK11       0.0119
     28 C17        -0.1158   -0.5726    4.2422 C.3     1  UNK11       0.0161
     29 C18        -2.3157    0.1464    5.1713 C.3     1  UNK11       0.0161
     30 C19        -5.9526   -2.5109    1.6981 C.ar    1  UNK11      -0.0376
     31 C20        -3.3566   -2.3314    2.7609 C.ar    1  UNK11      -0.0523
     32 C21         1.6137   -3.1078    7.8429 C.3     1  UNK11      -0.0446
     33 C22        -3.2316   -2.2792   -1.5721 C.ar    1  UNK11       0.0279
     34 C23        -4.2344   -4.8065   -1.5924 C.ar    1  UNK11      -0.0403
     35 C24         2.6069   -2.2592    8.6468 C.3     1  UNK11      -0.0626
     36 C25         1.7828   -4.5771    8.2237 C.3     1  UNK11      -0.0626
     37 C26        -0.0337    0.8398    3.6537 C.3     1  UNK11      -0.0371
     38 C27        -1.9831    1.3797    6.0071 C.3     1  UNK11      -0.0371
     39 C28        -3.9288   -1.2446    2.0900 C.ar    1  UNK11      -0.0611
     40 C29        -5.2189   -1.3286    1.5834 C.ar    1  UNK11      -0.0598
     41 C30        -4.5941   -2.4394   -1.7485 C.ar    1  UNK11      -0.0436
     42 C31        -5.1025   -3.7299   -1.7542 C.ar    1  UNK11      -0.0586
     43 C32         0.1591    1.9591    4.6805 C.3     1  UNK11      -0.0516
     44 C33        -0.5074    1.7690    6.0416 C.3     1  UNK11      -0.0516
@<TRIPOS>BOND
     1     2     4   ar
     2     3     9   am
     3     1     4   ar
     4     5    13    1
     5     1     6   ar
     6     7    11   am
     7     6     8   ar
     8     9    14    1
     9     3    10   am
    10    11    13    1
    11     5    12   am
    12    13    16    1
    13     7    14    1
    14    12    15    1
    15     1    16    1
    16    15    17    1
    17    15    18    1
    18     3    19    2
    19     7    20    2
    20     5    21    2
    21    22    25   ar
    22    17    23   ar
    23    14    24    1
    24    18    25    1
    25    17    26   ar
    26     2    27    1
    27    10    28    1
    28    10    29    1
    29     8    30   ar
    30     6    31   ar
    31    24    32    1
    32    22    33   ar
    33    25    34   ar
    34    32    35    1
    35    32    36    1
    36    28    37    1
    37    29    38    1
    38    31    39   ar
    39    39    40   ar
    40    41    42   ar
    41    34    42   ar
    42    37    43    1
    43    38    44    1
    44     2     8   ar
    45    30    40   ar
    46    33    41   ar
    47    43    44    1
