@<TRIPOS>MOLECULE
BOSENTAN_50CONFORMERS.pdb
 39 42 0 0 0
SMALL
GASTEIGER

@<TRIPOS>ATOM
      1  S1        -1.5560   -0.1540    3.0420 S.O2    1  LGD1        0.0943
      2  O2        -0.3870    0.7390    3.1200 O.2     1  LGD1       -0.1483
      3  O3        -2.8790    0.3480    3.5100 O.2     1  LGD1       -0.1483
      4  O4        -2.4520   -2.8760   -0.3820 O.3     1  LGD1       -0.4427
      5  O5        -0.5300   -3.7540   -2.0620 O.3     1  LGD1       -0.4552
      6  O6        -1.9710   -4.5810    1.8700 O.3     1  LGD1       -0.4684
      7  O7        -1.3390   -6.6760   -2.6180 O.3     1  LGD1       -0.2162
      8  N8        -1.7750   -0.5880    1.4140 N.pl3   1  LGD1       -0.0737
      9  N9         0.3520   -0.6360    0.4360 N.ar    1  LGD1       -0.2027
     10  N10        0.9590   -2.0830   -1.3900 N.ar    1  LGD1       -0.1866
     11  N11        3.4060   -0.7050   -1.6780 N.ar    1  LGD1       -0.2224
     12  N12        2.4900    1.0070   -0.1720 N.ar    1  LGD1       -0.2224
     13  C13        0.1740   -5.4030    5.5970 C.3     1  LGD1        0.0189
     14  C14       -0.1680   -3.9810    5.1230 C.ar    1  LGD1       -0.0227
     15  C15        1.5190   -6.0480    5.2330 C.3     1  LGD1        0.0044
     16  C16       -0.9630   -6.4150    5.2580 C.3     1  LGD1        0.0044
     17  C17        0.2000   -5.5080    7.1670 C.3     1  LGD1        0.0044
     18  C18       -1.5290   -3.5390    5.1240 C.ar    1  LGD1       -0.0029
     19  C19        0.7990   -3.1630    4.4440 C.ar    1  LGD1       -0.0029
     20  C20       -0.9690   -1.5690    3.8710 C.ar    1  LGD1        0.1271
     21  C21       -1.8880   -2.3030    4.5850 C.ar    1  LGD1        0.0199
     22  C22        0.3720   -1.9940    3.7970 C.ar    1  LGD1        0.0199
     23  C23       -0.8560   -1.2330    0.5710 C.ar    1  LGD1        0.2125
     24  C24       -1.1990   -2.2330   -0.3540 C.ar    1  LGD1        0.2327
     25  C25       -0.1520   -2.7370   -1.1920 C.ar    1  LGD1        0.2651
     26  C26        1.1820   -1.0140   -0.6150 C.ar    1  LGD1        0.2028
     27  C27       -3.2960   -2.9720    0.7350 C.ar    1  LGD1        0.1793
     28  C28        2.4120   -0.1510   -0.8880 C.ar    1  LGD1        0.1990
     29  C29        0.2180   -4.9390   -1.6790 C.3     1  LGD1        0.2426
     30  C30       -3.0580   -3.7770    1.8300 C.ar    1  LGD1        0.1730
     31  C31       -4.4750   -2.2080    0.6210 C.ar    1  LGD1        0.0406
     32  C32       -3.9800   -3.7340    2.8740 C.ar    1  LGD1        0.0401
     33  C33       -0.0190   -6.1070   -2.6700 C.3     1  LGD1        0.2292
     34  C34       -5.4090   -2.2290    1.6530 C.ar    1  LGD1        0.0033
     35  C35       -5.0790   -2.9140    2.8110 C.ar    1  LGD1        0.0033
     36  C36        4.6270   -0.0440   -1.6350 C.ar    1  LGD1        0.1023
     37  C37        3.6800    1.7350   -0.2470 C.ar    1  LGD1        0.1023
     38  C38        4.6980    1.1140   -0.9460 C.ar    1  LGD1        0.0414
     39  C39       -2.3070   -5.9040    1.3650 C.3     1  LGD1        0.2526
@<TRIPOS>BOND
     1    33     7    1
     2    33    29    1
     3     5    29    1
     4     5    25    1
     5    10    25   ar
     6    10    26   ar
     7    36    11   ar
     8    36    38   ar
     9    11    28   ar
    10    25    24   ar
    11    38    37   ar
    12    34    31   ar
    13    34    35   ar
    14    28    26    1
    15    28    12   ar
    16    26     9   ar
    17    31    27   ar
    18    37    12   ar
    19    24     4    1
    20    24    23   ar
    21     4    27    1
    22    27    30   ar
    23    35    32   ar
    24    15    13    1
    25     9    23   ar
    26    23     8    1
    27    30    32   ar
    28    30     6    1
    29     6    39    1
    30     8     1    1
    31    18    14   ar
    32    18    21   ar
    33    13    14    1
    34    13    17    1
    35    13    16    1
    36    14    19   ar
    37    21    20   ar
    38    20     1    1
    39    20    22   ar
    40    19    22   ar
    41     1     2    2
    42     1     3    2
@<TRIPOS>MOLECULE
2-[[2-[2-butyl-4-[(Z)-2-carboxy-3-(6-methoxy-1,3-benzodioxol-5-yl)prop-1-enyl]pyrazol-3-yl]-5-methoxyphenoxy]methyl]benzoic acid
 45 49 0 0 0
SMALL
GASTEIGER

@<TRIPOS>ATOM
      1 O          -1.2473   -4.1299    2.6935 O.3     1  LIG11      -0.4866
      2 O           4.0995    0.6564   -3.5638 O.3     1  LIG11      -0.4526
      3 O           4.3949    2.9675   -2.9565 O.3     1  LIG11      -0.4525
      4 O           6.0115    1.7570    1.4469 O.3     1  LIG11      -0.4947
      5 O          -1.9634   -2.0707    6.8732 O.3     1  LIG11      -0.4950
      6 O           6.9618   -0.8927    3.3210 O.co2   1  LIG11      -0.5449
      7 O           5.1696    0.0565    4.3666 O.co2   1  LIG11      -0.5449
      8 O          -2.1536   -2.9047    0.0893 O.co2   1  LIG11      -0.5446
      9 O          -2.4259   -0.9885    1.3000 O.co2   1  LIG11      -0.5446
     10 N           1.0439   -3.4223    0.9849 N.ar    1  LIG11      -0.2630
     11 N           1.6539   -2.9014   -0.0992 N.ar    1  LIG11      -0.1785
     12 C           1.3529   -2.7303    2.1805 C.ar    1  LIG11       0.0795
     13 C           0.4673   -4.7464    0.7998 C.3     1  LIG11       0.0422
     14 C           0.8233   -5.5062   -0.4956 C.3     1  LIG11      -0.0336
     15 C           2.5722   -2.0929    1.8189 C.ar    1  LIG11       0.0207
     16 C           0.4810   -2.6505    3.4380 C.ar    1  LIG11       0.0425
     17 C          -0.0421   -5.0317   -1.6738 C.3     1  LIG11      -0.0542
     18 C           2.5247   -2.0620    0.4204 C.ar    1  LIG11       0.0571
     19 C           3.6167   -1.4846    2.6059 C.2     1  LIG11      -0.0459
     20 C           5.5322   -1.0352    0.8831 C.3     1  LIG11       0.0029
     21 C          -0.7661   -3.3041    3.6586 C.ar    1  LIG11       0.1336
     22 C           4.8341   -1.0024    2.2326 C.2     1  LIG11      -0.0200
     23 C           5.2823    0.1052   -0.1053 C.ar    1  LIG11       0.0023
     24 C           0.8338   -1.7269    4.4485 C.ar    1  LIG11      -0.0456
     25 C           0.2629   -5.7837   -2.9558 C.3     1  LIG11      -0.0652
     26 C          -1.5250   -3.0749    4.8276 C.ar    1  LIG11       0.0224
     27 C           5.5291    1.4635    0.2022 C.ar    1  LIG11       0.1273
     28 C           4.8688   -0.2155   -1.4190 C.ar    1  LIG11      -0.0092
     29 C           0.0792   -1.5128    5.6192 C.ar    1  LIG11      -0.0191
     30 C           4.5833    0.8045   -2.3015 C.ar    1  LIG11       0.1667
     31 C          -1.1067   -2.1945    5.8150 C.ar    1  LIG11       0.1236
     32 C           4.7552    2.1201   -1.9571 C.ar    1  LIG11       0.1697
     33 C           5.2460    2.4822   -0.7232 C.ar    1  LIG11       0.0258
     34 C           5.7455   -0.5472    3.4106 C.2     1  LIG11       0.0680
     35 C          -2.5013   -4.7959    2.7599 C.3     1  LIG11       0.1153
     36 C           3.8347    2.0308   -3.9011 C.3     1  LIG11       0.2332
     37 C          -3.7751   -4.0241    2.4532 C.ar    1  LIG11      -0.0016
     38 C          -3.8391   -2.8313    1.7106 C.ar    1  LIG11       0.0037
     39 C          -4.9900   -4.6034    2.8760 C.ar    1  LIG11      -0.0547
     40 C           7.0944    2.6779    1.4570 C.3     1  LIG11       0.0788
     41 C          -5.0836   -2.2101    1.4919 C.ar    1  LIG11      -0.0525
     42 C          -6.2232   -3.9974    2.6085 C.ar    1  LIG11      -0.0614
     43 C          -1.5113   -1.2948    7.9738 C.3     1  LIG11       0.0788
     44 C          -6.2691   -2.7894    1.9303 C.ar    1  LIG11      -0.0611
     45 C          -2.6683   -2.1982    1.0105 C.2     1  LIG11       0.0720
@<TRIPOS>BOND
     1     1    35    1
     2     1    21    1
     3     2    36    1
     4     2    30    1
     5     3    32    1
     6     3    36    1
     7     4    27    1
     8     4    40    1
     9     5    31    1
    10     5    43    1
    11     6    34   ar
    12     7    34   ar
    13     8    45   ar
    14     9    45   ar
    15    10    11   ar
    16    10    12   ar
    17    10    13    1
    18    11    18   ar
    19    12    15   ar
    20    13    14    1
    21    14    17    1
    22    15    18   ar
    23    15    19    1
    24    16    24   ar
    25    16    21   ar
    26    16    12    1
    27    17    25    1
    28    19    22    2
    29    20    22    1
    30    20    23    1
    31    21    26   ar
    32    22    34    1
    33    23    28   ar
    34    23    27   ar
    35    24    29   ar
    36    26    31   ar
    37    27    33   ar
    38    28    30   ar
    39    29    31   ar
    40    30    32   ar
    41    32    33   ar
    42    35    37    1
    43    37    39   ar
    44    37    38   ar
    45    38    41   ar
    46    38    45    1
    47    39    42   ar
    48    41    44   ar
    49    42    44   ar
