@<TRIPOS>MOLECULE
BOSENTAN_50CONFORMERS.pdb
 39 42 0 0 0
SMALL
GASTEIGER

@<TRIPOS>ATOM
      1  S1        -1.6410    0.6860    2.4560 S.O2    1  LGD1        0.0943
      2  O2        -1.3520    1.8340    1.5570 O.2     1  LGD1       -0.1483
      3  O3        -2.8280    0.6310    3.3500 O.2     1  LGD1       -0.1483
      4  O4        -2.5220   -2.6610   -0.2930 O.3     1  LGD1       -0.4427
      5  O5        -0.5450   -3.8450   -2.0380 O.3     1  LGD1       -0.4552
      6  O6        -5.1660   -2.9260    0.7860 O.3     1  LGD1       -0.4684
      7  O7         0.0380   -6.7410   -2.8450 O.3     1  LGD1       -0.2162
      8  N8        -1.7810   -0.7390    1.4900 N.pl3   1  LGD1       -0.0737
      9  N9         0.3880   -0.5790    0.3990 N.ar    1  LGD1       -0.2027
     10  N10        1.0090   -2.0750   -1.3690 N.ar    1  LGD1       -0.1866
     11  N11        3.4500   -0.9450   -1.4270 N.ar    1  LGD1       -0.2224
     12  N12        2.6080    0.9490   -0.1290 N.ar    1  LGD1       -0.2224
     13  C13        3.0060   -0.4140    6.2670 C.3     1  LGD1        0.0189
     14  C14        1.7960   -0.2250    5.3460 C.ar    1  LGD1       -0.0227
     15  C15        3.6020    0.8790    6.7690 C.3     1  LGD1        0.0044
     16  C16        4.0990   -1.2220    5.5180 C.3     1  LGD1        0.0044
     17  C17        2.7020   -1.3170    7.5110 C.3     1  LGD1        0.0044
     18  C18        0.5860   -0.9460    5.4420 C.ar    1  LGD1       -0.0029
     19  C19        1.9640    0.7150    4.2860 C.ar    1  LGD1       -0.0029
     20  C20       -0.2480    0.3390    3.5910 C.ar    1  LGD1        0.1271
     21  C21       -0.4380   -0.6670    4.5460 C.ar    1  LGD1        0.0199
     22  C22        0.9140    1.0760    3.4700 C.ar    1  LGD1        0.0199
     23  C23       -0.8660   -1.1160    0.4880 C.ar    1  LGD1        0.2125
     24  C24       -1.2140   -2.1850   -0.3940 C.ar    1  LGD1        0.2327
     25  C25       -0.2410   -2.7090   -1.2100 C.ar    1  LGD1        0.2651
     26  C26        1.2320   -1.0290   -0.5570 C.ar    1  LGD1        0.2028
     27  C27       -3.6100   -1.9910   -0.8550 C.ar    1  LGD1        0.1793
     28  C28        2.5120   -0.2650   -0.7460 C.ar    1  LGD1        0.1990
     29  C29        0.5500   -4.2720   -2.9720 C.3     1  LGD1        0.2426
     30  C30       -4.8960   -2.1580   -0.3670 C.ar    1  LGD1        0.1730
     31  C31       -3.4260   -0.9480   -1.7950 C.ar    1  LGD1        0.0406
     32  C32       -5.9660   -1.4110   -0.8700 C.ar    1  LGD1        0.0401
     33  C33        0.2550   -5.6500   -3.6940 C.3     1  LGD1        0.2292
     34  C34       -4.4950   -0.1990   -2.2740 C.ar    1  LGD1        0.0033
     35  C35       -5.7700   -0.4310   -1.8670 C.ar    1  LGD1        0.0033
     36  C36        4.6630   -0.3400   -1.5250 C.ar    1  LGD1        0.1023
     37  C37        3.8560    1.4910   -0.1510 C.ar    1  LGD1        0.1023
     38  C38        4.8320    0.8620   -0.8950 C.ar    1  LGD1        0.0414
     39  C39       -5.6290   -4.2950    0.5660 C.3     1  LGD1        0.2526
@<TRIPOS>BOND
     1    33     7    1
     2    33    29    1
     3     5    29    1
     4     5    25    1
     5    10    25   ar
     6    10    26   ar
     7    36    11   ar
     8    36    38   ar
     9    11    28   ar
    10    25    24   ar
    11    38    37   ar
    12    34    31   ar
    13    34    35   ar
    14    28    26    1
    15    28    12   ar
    16    26     9   ar
    17    31    27   ar
    18    37    12   ar
    19    24     4    1
    20    24    23   ar
    21     4    27    1
    22    27    30   ar
    23    35    32   ar
    24    15    13    1
    25     9    23   ar
    26    23     8    1
    27    30    32   ar
    28    30     6    1
    29     6    39    1
    30     8     1    1
    31    18    14   ar
    32    18    21   ar
    33    13    14    1
    34    13    17    1
    35    13    16    1
    36    14    19   ar
    37    21    20   ar
    38    20     1    1
    39    20    22   ar
    40    19    22   ar
    41     1     2    2
    42     1     3    2
@<TRIPOS>MOLECULE
*****
 39 42 0 0 0
SMALL
GASTEIGER

@<TRIPOS>ATOM
      1 C          -1.7446   -8.3762   -4.7739 C.ar    1  LIG11       0.0483
      2 C          -2.8262   -8.8202   -5.4989 C.ar    1  LIG11       0.0543
      3 C          -3.6551   -7.8387   -5.9895 C.ar    1  LIG11       0.0483
      4 N          -3.4476   -6.5204   -5.7884 N.ar    1  LIG11      -0.2022
      5 N          -1.4839   -7.0704   -4.5454 N.ar    1  LIG11      -0.2022
      6 C          -5.5834   -0.6706   -1.9265 C.ar    1  LIG11      -0.0504
      7 C          -4.5149   -0.6035   -2.8247 C.ar    1  LIG11      -0.0583
      8 C          -3.2272   -0.9867   -2.4304 C.ar    1  LIG11      -0.0535
      9 C          -2.9699   -1.4516   -1.1302 C.ar    1  LIG11      -0.0094
     10 C          -4.0600   -1.5332   -0.2464 C.ar    1  LIG11      -0.0535
     11 C          -5.3431   -1.1284   -0.6297 C.ar    1  LIG11      -0.0583
     12 C           0.6437   -0.7976    5.8140 C.ar    1  LIG11      -0.0561
     13 C          -0.4623   -0.9892    4.9827 C.ar    1  LIG11      -0.0348
     14 C          -0.5080   -0.3687    3.7342 C.ar    1  LIG11       0.1086
     15 C           0.5499    0.4316    3.3118 C.ar    1  LIG11      -0.0348
     16 C           1.6618    0.6077    4.1457 C.ar    1  LIG11      -0.0561
     17 C           2.9314    0.2064    6.3669 C.3     1  LIG11       0.0132
     18 C           1.7344    0.0003    5.4136 C.ar    1  LIG11      -0.0394
     19 C           3.4826   -1.1678    6.8158 C.3     1  LIG11      -0.0537
     20 C           2.4690    0.9900    7.6267 C.3     1  LIG11       0.0533
     21 C           4.1119    0.9701    5.7224 C.3     1  LIG11      -0.0537
     22 O           2.0562    2.3184    7.3132 O.3     1  LIG11      -0.3942
     23 S          -1.9486   -0.6245    2.7347 S.O2    1  LIG11       0.0735
     24 O          -2.2896   -2.0312    2.7833 O.2     1  LIG11      -0.1499
     25 O          -2.9049    0.3807    3.1478 O.2     1  LIG11      -0.1499
     26 N          -1.5281   -0.2169    1.1587 N.pl3   1  LIG11      -0.1988
     27 C          -1.6060   -1.8269   -0.7041 C.ar    1  LIG11       0.0847
     28 C          -0.8282   -2.7802   -1.3549 C.ar    1  LIG11       0.2276
     29 N           0.4186   -3.1338   -0.9784 N.ar    1  LIG11      -0.2008
     30 C           0.9131   -2.5090    0.0914 C.ar    1  LIG11       0.1219
     31 N           0.2901   -1.5670    0.7975 N.ar    1  LIG11      -0.2186
     32 C          -0.9481   -1.2534    0.3819 C.ar    1  LIG11       0.1524
     33 C          -6.9519   -0.2121   -2.3340 C.3     1  LIG11      -0.0397
     34 O          -1.3469   -3.3587   -2.4979 O.3     1  LIG11      -0.4724
     35 C          -0.5844   -4.4389   -3.0530 C.3     1  LIG11       0.1252
     36 C          -0.8398   -4.4842   -4.5600 C.3     1  LIG11       0.1267
     37 O          -2.1862   -4.8480   -4.8670 O.3     1  LIG11      -0.4590
     38 C          -2.3596   -6.1961   -5.0741 C.ar    1  LIG11       0.3180
     39 BR         -3.1488  -10.6444   -5.7981 Br      1  LIG11      -0.0472
@<TRIPOS>BOND
     1     1     2   ar
     2     2     3   ar
     3     2    39    1
     4     3     4   ar
     5     4    38   ar
     6     5     1   ar
     7     6     7   ar
     8     6    33    1
     9     7     8   ar
    10     8     9   ar
    11     9    10   ar
    12    10    11   ar
    13    11     6   ar
    14    12    13   ar
    15    13    14   ar
    16    14    15   ar
    17    15    16   ar
    18    16    18   ar
    19    17    18    1
    20    17    21    1
    21    17    20    1
    22    17    19    1
    23    18    12   ar
    24    20    22    1
    25    23    26    1
    26    23    25    2
    27    23    24    2
    28    23    14    1
    29    26    32    1
    30    27    28   ar
    31    27     9    1
    32    28    29   ar
    33    29    30   ar
    34    30    31   ar
    35    31    32   ar
    36    32    27   ar
    37    34    35    1
    38    34    28    1
    39    35    36    1
    40    36    37    1
    41    37    38    1
    42    38     5   ar
