@<TRIPOS>MOLECULE
BOSENTAN_50CONFORMERS.pdb
 39 42 0 0 0
SMALL
GASTEIGER

@<TRIPOS>ATOM
      1  S1        -2.1950    0.9790    1.5750 S.O2    1  LGD1        0.0943
      2  O2        -3.6260    1.0770    2.1120 O.2     1  LGD1       -0.1483
      3  O3        -1.0440    1.4720    2.4140 O.2     1  LGD1       -0.1483
      4  O4        -2.4680   -2.8310   -0.1920 O.3     1  LGD1       -0.4427
      5  O5        -0.5400   -3.7360   -2.0620 O.3     1  LGD1       -0.4552
      6  O6        -2.4940   -1.8770   -2.7760 O.3     1  LGD1       -0.4684
      7  O7        -0.2590   -6.0400   -3.9240 O.3     1  LGD1       -0.2162
      8  N8        -1.8420   -0.6480    1.3810 N.pl3   1  LGD1       -0.0737
      9  N9         0.3650   -0.6070    0.3680 N.ar    1  LGD1       -0.2027
     10  N10        0.9560   -2.0500   -1.4450 N.ar    1  LGD1       -0.1866
     11  N11        2.7520    0.8600   -0.4260 N.ar    1  LGD1       -0.2224
     12  N12        3.6740   -1.3280   -0.1880 N.ar    1  LGD1       -0.2224
     13  C13       -1.9750    3.4320   -4.0580 C.3     1  LGD1        0.0189
     14  C14       -1.9630    2.8920   -2.5980 C.ar    1  LGD1       -0.0227
     15  C15       -2.0200    2.3060   -5.1320 C.3     1  LGD1        0.0044
     16  C16       -0.7970    4.3670   -4.3750 C.3     1  LGD1        0.0044
     17  C17       -3.2070    4.2640   -4.4060 C.3     1  LGD1        0.0044
     18  C18       -0.8440    2.8270   -1.8020 C.ar    1  LGD1       -0.0029
     19  C19       -3.1540    2.2710   -2.1610 C.ar    1  LGD1       -0.0029
     20  C20       -2.0710    1.6450   -0.0830 C.ar    1  LGD1        0.1271
     21  C21       -0.8580    2.1870   -0.5190 C.ar    1  LGD1        0.0199
     22  C22       -3.2010    1.6160   -0.9140 C.ar    1  LGD1        0.0199
     23  C23       -0.8390   -1.1560    0.5500 C.ar    1  LGD1        0.2125
     24  C24       -1.1450   -2.2830   -0.2440 C.ar    1  LGD1        0.2327
     25  C25       -0.2140   -2.7180   -1.2060 C.ar    1  LGD1        0.2651
     26  C26        1.2420   -1.0800   -0.5330 C.ar    1  LGD1        0.2028
     27  C27       -3.5380   -2.2090   -0.7300 C.ar    1  LGD1        0.1793
     28  C28        2.6550   -0.4480   -0.3540 C.ar    1  LGD1        0.1990
     29  C29       -0.0540   -4.9970   -1.7680 C.3     1  LGD1        0.2426
     30  C30       -3.6140   -1.7550   -2.0830 C.ar    1  LGD1        0.1730
     31  C31       -4.6390   -2.0100    0.0970 C.ar    1  LGD1        0.0406
     32  C32       -4.7730   -1.1500   -2.5920 C.ar    1  LGD1        0.0401
     33  C33       -0.8710   -6.0160   -2.6140 C.3     1  LGD1        0.2292
     34  C34       -5.7550   -1.2910   -0.3560 C.ar    1  LGD1        0.0033
     35  C35       -5.8300   -0.9060   -1.6770 C.ar    1  LGD1        0.0033
     36  C36        3.9880    1.4070   -0.2740 C.ar    1  LGD1        0.1023
     37  C37        4.9070   -0.8150   -0.0320 C.ar    1  LGD1        0.1023
     38  C38        5.0790    0.5430   -0.0640 C.ar    1  LGD1        0.0414
     39  C39       -2.4100   -1.1280   -3.9700 C.3     1  LGD1        0.2526
@<TRIPOS>BOND
     1    33     7    1
     2    33    29    1
     3     5    29    1
     4     5    25    1
     5    10    25   ar
     6    10    26   ar
     7    36    11   ar
     8    36    38   ar
     9    11    28   ar
    10    25    24   ar
    11    38    37   ar
    12    34    31   ar
    13    34    35   ar
    14    28    26    1
    15    28    12   ar
    16    26     9   ar
    17    31    27   ar
    18    37    12   ar
    19    24     4    1
    20    24    23   ar
    21     4    27    1
    22    27    30   ar
    23    35    32   ar
    24    15    13    1
    25     9    23   ar
    26    23     8    1
    27    30    32   ar
    28    30     6    1
    29     6    39    1
    30     8     1    1
    31    18    14   ar
    32    18    21   ar
    33    13    14    1
    34    13    17    1
    35    13    16    1
    36    14    19   ar
    37    21    20   ar
    38    20     1    1
    39    20    22   ar
    40    19    22   ar
    41     1     2    2
    42     1     3    2
@<TRIPOS>MOLECULE
156690
 38 41 0 0 0
SMALL
GASTEIGER

@<TRIPOS>ATOM
      1 S          -3.9726   -0.7487    1.7696 S.O2    1  LIG11       0.0741
      2 O          -3.3629    1.9706   -3.9017 O.2     1  LIG11      -0.2756
      3 O          -2.6526   -0.1692    1.8750 O.2     1  LIG11      -0.1499
      4 O          -4.2891   -1.9594    2.4999 O.2     1  LIG11      -0.1499
      5 O           1.2976    3.7968   -1.2377 O.2     1  LIG11      -0.4436
      6 O          -4.8407    3.3725    3.8991 O.2     1  LIG11      -0.3578
      7 N          -1.4169    0.8188   -4.3100 N.am    1  LIG11      -0.3002
      8 N          -5.1701    0.3895    2.1366 N.pl3   1  LIG11      -0.1965
      9 N           0.4642    4.5307    0.7281 N.ar    1  LIG11      -0.2175
     10 N          -5.1286    2.6442    2.7647 N.ar    1  LIG11      -0.0614
     11 C          -3.0304    3.9313   -5.9737 C.3     1  LIG11      -0.0295
     12 C          -2.1663    2.6400   -5.8613 C.3     1  LIG11       0.0290
     13 C          -2.6774    4.6197   -7.3093 C.3     1  LIG11      -0.0596
     14 C          -2.7032    4.9086   -4.8298 C.3     1  LIG11      -0.0596
     15 C          -4.5430    3.6396   -5.9922 C.3     1  LIG11      -0.0596
     16 C          -2.3732    1.7919   -4.6078 C.2     1  LIG11       0.2161
     17 C          -1.5377    0.0209   -3.0658 C.3     1  LIG11       0.0400
     18 C          -1.7314    0.8724   -1.8217 C.ar    1  LIG11      -0.0216
     19 C          -2.8850    0.8451   -0.9876 C.ar    1  LIG11      -0.0113
     20 C          -3.9456   -0.2142   -1.0399 C.ar    1  LIG11       0.0090
     21 C          -0.3696    0.4030   -5.2301 C.3     1  LIG11       0.0035
     22 C          -0.6940    1.8120   -1.5734 C.ar    1  LIG11      -0.0442
     23 C          -4.3794   -1.0295    0.0386 C.ar    1  LIG11       0.1162
     24 C          -3.0065    1.9159   -0.0840 C.ar    1  LIG11      -0.0529
     25 C          -0.7900    2.7824   -0.5758 C.ar    1  LIG11       0.0372
     26 C          -1.9775    2.8429    0.1454 C.ar    1  LIG11      -0.0489
     27 C          -4.6037   -0.4567   -2.2672 C.ar    1  LIG11      -0.0521
     28 C          -5.3017   -2.0859   -0.1644 C.ar    1  LIG11      -0.0345
     29 C          -5.5227   -1.4941   -2.4640 C.ar    1  LIG11      -0.0611
     30 C           0.2929    3.7220   -0.3024 C.ar    1  LIG11       0.2271
     31 C          -5.8550   -2.3281   -1.4144 C.ar    1  LIG11      -0.0599
     32 C          -4.9520    1.3639    3.0999 C.ar    1  LIG11       0.1837
     33 C          -4.6709    1.2172    4.4783 C.ar    1  LIG11       0.0342
     34 C          -4.5701    2.5212    4.9216 C.ar    1  LIG11       0.1390
     35 C          -4.5619   -0.0139    5.2891 C.3     1  LIG11      -0.0330
     36 C           2.1552    4.7266   -0.7347 C.ar    1  LIG11       0.1125
     37 C           1.6528    5.1615    0.4640 C.ar    1  LIG11       0.0663
     38 C          -4.2857    3.1511    6.2239 C.3     1  LIG11      -0.0034
@<TRIPOS>BOND
     1     1     3    2
     2     1     4    2
     3     1     8    1
     4     1    23    1
     5     2    16    2
     6     5    30   ar
     7     5    36   ar
     8     6    10   ar
     9     6    34   ar
    10     7    16   am
    11     7    17    1
    12     7    21    1
    13     8    32    1
    14     9    30   ar
    15     9    37   ar
    16    10    32   ar
    17    11    12    1
    18    11    13    1
    19    11    14    1
    20    11    15    1
    21    12    16    1
    22    17    18    1
    23    18    19   ar
    24    18    22   ar
    25    19    20    1
    26    19    24   ar
    27    20    23   ar
    28    20    27   ar
    29    22    25   ar
    30    23    28   ar
    31    24    26   ar
    32    25    26   ar
    33    25    30    1
    34    27    29   ar
    35    28    31   ar
    36    29    31   ar
    37    32    33   ar
    38    33    34   ar
    39    33    35    1
    40    34    38    1
    41    36    37   ar
