@<TRIPOS>MOLECULE
BOSENTAN_50CONFORMERS.pdb
 39 42 0 0 0
SMALL
GASTEIGER

@<TRIPOS>ATOM
      1  S1        -1.3660   -0.1150    2.9650 S.O2    1  LGD1        0.0943
      2  O2        -0.3450    0.9870    2.7690 O.2     1  LGD1       -0.1483
      3  O3        -2.6900    0.1410    3.5490 O.2     1  LGD1       -0.1483
      4  O4        -2.4050   -2.8540   -0.1530 O.3     1  LGD1       -0.4427
      5  O5        -0.5460   -3.7560   -2.0460 O.3     1  LGD1       -0.4552
      6  O6        -0.8160   -5.0270    0.8790 O.3     1  LGD1       -0.4684
      7  O7        -0.5110   -6.7440   -2.2490 O.3     1  LGD1       -0.2162
      8  N8        -1.8210   -0.6980    1.4120 N.pl3   1  LGD1       -0.0737
      9  N9         0.4140   -0.5800    0.3940 N.ar    1  LGD1       -0.2027
     10  N10        0.9880   -2.0990   -1.3950 N.ar    1  LGD1       -0.1866
     11  N11        3.3950   -0.7920   -1.7030 N.ar    1  LGD1       -0.2224
     12  N12        2.9800    0.5030    0.3180 N.ar    1  LGD1       -0.2224
     13  C13        1.8080   -4.5960    5.8740 C.3     1  LGD1        0.0189
     14  C14        1.0040   -3.4660    5.1740 C.ar    1  LGD1       -0.0227
     15  C15        2.1120   -5.6800    4.8570 C.3     1  LGD1        0.0044
     16  C16        1.0630   -5.4280    7.0090 C.3     1  LGD1        0.0044
     17  C17        3.0620   -4.0440    6.5230 C.3     1  LGD1        0.0044
     18  C18       -0.3850   -3.2210    5.4020 C.ar    1  LGD1       -0.0029
     19  C19        1.6560   -2.6570    4.2610 C.ar    1  LGD1       -0.0029
     20  C20       -0.3940   -1.3840    3.8730 C.ar    1  LGD1        0.1271
     21  C21       -1.0570   -2.2030    4.7700 C.ar    1  LGD1        0.0199
     22  C22        0.9880   -1.5490    3.6490 C.ar    1  LGD1        0.0199
     23  C23       -0.8700   -1.1650    0.5100 C.ar    1  LGD1        0.2125
     24  C24       -1.1790   -2.2420   -0.2860 C.ar    1  LGD1        0.2327
     25  C25       -0.2200   -2.6970   -1.2090 C.ar    1  LGD1        0.2651
     26  C26        1.2150   -1.0410   -0.5730 C.ar    1  LGD1        0.2028
     27  C27       -2.8340   -3.5430    1.0090 C.ar    1  LGD1        0.1793
     28  C28        2.6270   -0.3960   -0.6610 C.ar    1  LGD1        0.1990
     29  C29        0.5950   -4.5440   -2.3930 C.3     1  LGD1        0.2426
     30  C30       -2.0200   -4.6020    1.5290 C.ar    1  LGD1        0.1730
     31  C31       -3.9100   -3.0570    1.7580 C.ar    1  LGD1        0.0406
     32  C32       -2.3750   -5.1750    2.7290 C.ar    1  LGD1        0.0401
     33  C33        0.0760   -5.8030   -3.1590 C.3     1  LGD1        0.2292
     34  C34       -4.2060   -3.5890    3.0330 C.ar    1  LGD1        0.0033
     35  C35       -3.4170   -4.6480    3.4780 C.ar    1  LGD1        0.0033
     36  C36        4.7210   -0.3690   -1.6230 C.ar    1  LGD1        0.1023
     37  C37        4.2420    1.0110    0.2880 C.ar    1  LGD1        0.1023
     38  C38        5.1370    0.5070   -0.6100 C.ar    1  LGD1        0.0414
     39  C39        0.4630   -4.7420    1.5850 C.3     1  LGD1        0.2526
@<TRIPOS>BOND
     1    33     7    1
     2    33    29    1
     3     5    29    1
     4     5    25    1
     5    10    25   ar
     6    10    26   ar
     7    36    11   ar
     8    36    38   ar
     9    11    28   ar
    10    25    24   ar
    11    38    37   ar
    12    34    31   ar
    13    34    35   ar
    14    28    26    1
    15    28    12   ar
    16    26     9   ar
    17    31    27   ar
    18    37    12   ar
    19    24     4    1
    20    24    23   ar
    21     4    27    1
    22    27    30   ar
    23    35    32   ar
    24    15    13    1
    25     9    23   ar
    26    23     8    1
    27    30    32   ar
    28    30     6    1
    29     6    39    1
    30     8     1    1
    31    18    14   ar
    32    18    21   ar
    33    13    14    1
    34    13    17    1
    35    13    16    1
    36    14    19   ar
    37    21    20   ar
    38    20     1    1
    39    20    22   ar
    40    19    22   ar
    41     1     2    2
    42     1     3    2
@<TRIPOS>MOLECULE
46174111
 29 32 0 0 0
SMALL
GASTEIGER

@<TRIPOS>ATOM
      1 CL         -6.7722    1.6524    2.4205 Cl      1  LIG11      -0.0762
      2 S          -5.3253   -1.6923    2.6271 S.O2    1  LIG11       0.0758
      3 S          -2.4600   -4.8707    3.0162 S.2     1  LIG11      -0.0918
      4 O           0.6203    0.4308    3.9355 O.3     1  LIG11      -0.4526
      5 O           2.5810   -0.8852    3.4480 O.3     1  LIG11      -0.4526
      6 O          -4.0879   -2.4678    5.5582 O.2     1  LIG11      -0.2911
      7 O          -6.5938   -2.3601    2.4260 O.2     1  LIG11      -0.1499
      8 O          -4.7623   -0.8236    1.6150 O.2     1  LIG11      -0.1499
      9 O          -3.8998    0.8447    4.9115 O.2     1  LIG11      -0.3364
     10 N          -5.3993   -0.8989    4.1015 N.pl3   1  LIG11      -0.1821
     11 N          -3.6635    2.1948    4.7273 N.ar    1  LIG11      -0.0798
     12 C          -0.6523   -2.8142    5.1520 C.ar    1  LIG11      -0.0333
     13 C          -1.9147   -3.4110    5.7460 C.3     1  LIG11       0.0366
     14 C           0.5276   -3.5769    4.9132 C.ar    1  LIG11      -0.0432
     15 C          -4.1982   -3.0307    2.5958 C.ar    1  LIG11       0.1261
     16 C          -3.3552   -3.5115    3.5889 C.ar    1  LIG11       0.0814
     17 C          -0.6501   -1.4316    4.8603 C.ar    1  LIG11      -0.0123
     18 C          -3.1929   -3.0835    4.9750 C.2     1  LIG11       0.1759
     19 C           0.4735   -0.8727    4.2910 C.ar    1  LIG11       0.1665
     20 C           1.5885   -1.6188    4.0173 C.ar    1  LIG11       0.1665
     21 C           1.6471   -2.9610    4.3155 C.ar    1  LIG11      -0.0130
     22 C           0.6582   -5.0465    5.2193 C.3     1  LIG11      -0.0393
     23 C          -4.0531   -3.7678    1.3664 C.ar    1  LIG11      -0.0273
     24 C           1.9576    0.4152    3.3947 C.3     1  LIG11       0.2332
     25 C          -3.1356   -4.7838    1.4605 C.ar    1  LIG11      -0.0217
     26 C          -4.9216    0.4389    4.1073 C.ar    1  LIG11       0.2554
     27 C          -5.4195    1.5350    3.4390 C.ar    1  LIG11       0.1262
     28 C          -4.5891    2.6059    3.8495 C.ar    1  LIG11       0.1009
     29 C          -4.6643    4.0363    3.4738 C.3     1  LIG11      -0.0176
@<TRIPOS>BOND
     1     1    27    1
     2     2    10    1
     3     2    15    1
     4     2     8    2
     5     2     7    2
     6     3    16   ar
     7     3    25   ar
     8     4    24    1
     9     4    19    1
    10     5    20    1
    11     5    24    1
    12     6    18    2
    13     9    11   ar
    14     9    26   ar
    15    10    26    1
    16    11    28   ar
    17    12    17   ar
    18    12    14   ar
    19    13    18    1
    20    13    12    1
    21    14    21   ar
    22    14    22    1
    23    15    23   ar
    24    15    16   ar
    25    16    18    1
    26    17    19   ar
    27    19    20   ar
    28    20    21   ar
    29    23    25   ar
    30    26    27   ar
    31    27    28   ar
    32    28    29    1
