@<TRIPOS>MOLECULE
BOSENTAN_50CONFORMERS.pdb
 39 42 0 0 0
SMALL
GASTEIGER

@<TRIPOS>ATOM
      1  S1        -2.1950    0.9790    1.5750 S.O2    1  LGD1        0.0943
      2  O2        -3.6260    1.0770    2.1120 O.2     1  LGD1       -0.1483
      3  O3        -1.0440    1.4720    2.4140 O.2     1  LGD1       -0.1483
      4  O4        -2.4680   -2.8310   -0.1920 O.3     1  LGD1       -0.4427
      5  O5        -0.5400   -3.7360   -2.0620 O.3     1  LGD1       -0.4552
      6  O6        -2.4940   -1.8770   -2.7760 O.3     1  LGD1       -0.4684
      7  O7        -0.2590   -6.0400   -3.9240 O.3     1  LGD1       -0.2162
      8  N8        -1.8420   -0.6480    1.3810 N.pl3   1  LGD1       -0.0737
      9  N9         0.3650   -0.6070    0.3680 N.ar    1  LGD1       -0.2027
     10  N10        0.9560   -2.0500   -1.4450 N.ar    1  LGD1       -0.1866
     11  N11        2.7520    0.8600   -0.4260 N.ar    1  LGD1       -0.2224
     12  N12        3.6740   -1.3280   -0.1880 N.ar    1  LGD1       -0.2224
     13  C13       -1.9750    3.4320   -4.0580 C.3     1  LGD1        0.0189
     14  C14       -1.9630    2.8920   -2.5980 C.ar    1  LGD1       -0.0227
     15  C15       -2.0200    2.3060   -5.1320 C.3     1  LGD1        0.0044
     16  C16       -0.7970    4.3670   -4.3750 C.3     1  LGD1        0.0044
     17  C17       -3.2070    4.2640   -4.4060 C.3     1  LGD1        0.0044
     18  C18       -0.8440    2.8270   -1.8020 C.ar    1  LGD1       -0.0029
     19  C19       -3.1540    2.2710   -2.1610 C.ar    1  LGD1       -0.0029
     20  C20       -2.0710    1.6450   -0.0830 C.ar    1  LGD1        0.1271
     21  C21       -0.8580    2.1870   -0.5190 C.ar    1  LGD1        0.0199
     22  C22       -3.2010    1.6160   -0.9140 C.ar    1  LGD1        0.0199
     23  C23       -0.8390   -1.1560    0.5500 C.ar    1  LGD1        0.2125
     24  C24       -1.1450   -2.2830   -0.2440 C.ar    1  LGD1        0.2327
     25  C25       -0.2140   -2.7180   -1.2060 C.ar    1  LGD1        0.2651
     26  C26        1.2420   -1.0800   -0.5330 C.ar    1  LGD1        0.2028
     27  C27       -3.5380   -2.2090   -0.7300 C.ar    1  LGD1        0.1793
     28  C28        2.6550   -0.4480   -0.3540 C.ar    1  LGD1        0.1990
     29  C29       -0.0540   -4.9970   -1.7680 C.3     1  LGD1        0.2426
     30  C30       -3.6140   -1.7550   -2.0830 C.ar    1  LGD1        0.1730
     31  C31       -4.6390   -2.0100    0.0970 C.ar    1  LGD1        0.0406
     32  C32       -4.7730   -1.1500   -2.5920 C.ar    1  LGD1        0.0401
     33  C33       -0.8710   -6.0160   -2.6140 C.3     1  LGD1        0.2292
     34  C34       -5.7550   -1.2910   -0.3560 C.ar    1  LGD1        0.0033
     35  C35       -5.8300   -0.9060   -1.6770 C.ar    1  LGD1        0.0033
     36  C36        3.9880    1.4070   -0.2740 C.ar    1  LGD1        0.1023
     37  C37        4.9070   -0.8150   -0.0320 C.ar    1  LGD1        0.1023
     38  C38        5.0790    0.5430   -0.0640 C.ar    1  LGD1        0.0414
     39  C39       -2.4100   -1.1280   -3.9700 C.3     1  LGD1        0.2526
@<TRIPOS>BOND
     1    33     7    1
     2    33    29    1
     3     5    29    1
     4     5    25    1
     5    10    25   ar
     6    10    26   ar
     7    36    11   ar
     8    36    38   ar
     9    11    28   ar
    10    25    24   ar
    11    38    37   ar
    12    34    31   ar
    13    34    35   ar
    14    28    26    1
    15    28    12   ar
    16    26     9   ar
    17    31    27   ar
    18    37    12   ar
    19    24     4    1
    20    24    23   ar
    21     4    27    1
    22    27    30   ar
    23    35    32   ar
    24    15    13    1
    25     9    23   ar
    26    23     8    1
    27    30    32   ar
    28    30     6    1
    29     6    39    1
    30     8     1    1
    31    18    14   ar
    32    18    21   ar
    33    13    14    1
    34    13    17    1
    35    13    16    1
    36    14    19   ar
    37    21    20   ar
    38    20     1    1
    39    20    22   ar
    40    19    22   ar
    41     1     2    2
    42     1     3    2
@<TRIPOS>MOLECULE
16219006
 44 47 0 0 0
SMALL
GASTEIGER

@<TRIPOS>ATOM
      1 O           3.3039    0.4804   -6.5495 O.2     1  PRO11      -0.2738
      2 O           0.2796   -1.0999   -9.1179 O.2     5  ASP55      -0.2735
      3 O          -0.9783    1.9643   -8.1228 O.2     2  VAL22      -0.2738
      4 O          -0.9257   -3.9489   -5.3746 O.2     4  TRP44      -0.2738
      5 O          -0.4672   -0.0581   -4.1940 O.2     3  LEU33      -0.2738
      6 OD1         0.7933   -4.5538   -9.9874 O.co2   5  ASP55      -0.5497
      7 OD2        -0.9953   -4.6325  -11.4012 O.co2   5  ASP55      -0.5497
      8 N           1.8214   -2.1581   -7.8361 N.am    1  PRO11      -0.2884
      9 N           1.8437    0.9511   -8.2500 N.am    2  VAL22      -0.3022
     10 N          -1.3527   -2.5222   -7.1222 N.am    5  ASP55      -0.3021
     11 N          -0.2742    2.0895   -5.9532 N.am    3  LEU33      -0.3025
     12 N          -2.3523   -0.6321   -5.3641 N.am    4  TRP44      -0.3022
     13 NE1        -6.5004   -0.7034   -3.4829 N.ar    4  TRP44      -0.3604
     14 CA          2.9001   -1.2568   -8.2354 C.3     1  PRO11       0.1023
     15 CB          4.1794   -1.9655   -7.7826 C.3     1  PRO11      -0.0243
     16 CG          3.7136   -2.8483   -6.6312 C.3     1  PRO11      -0.0350
     17 CD          2.3312   -3.2900   -7.0828 C.3     1  PRO11       0.0156
     18 C           2.7278    0.1314   -7.5782 C.2     1  PRO11       0.2342
     19 C           0.5904   -2.1022   -8.4555 C.2     5  ASP55       0.2369
     20 CA          1.4205    2.2419   -7.7254 C.3     2  VAL22       0.1017
     21 CA         -0.4657   -3.1790   -8.1005 C.3     5  ASP55       0.1047
     22 CB          1.7023    3.3839   -8.7275 C.3     2  VAL22      -0.0197
     23 CA         -1.5763    1.7074   -5.4242 C.3     3  LEU33       0.0996
     24 C          -0.0609    2.1056   -7.3178 C.2     2  VAL22       0.2342
     25 CB         -1.2708   -3.5806   -9.3239 C.3     5  ASP55       0.0138
     26 CA         -2.3238   -2.0298   -4.9183 C.3     4  TRP44       0.1034
     27 CB         -2.0151    2.5892   -4.2456 C.3     3  LEU33      -0.0236
     28 CG         -2.4947    4.0013   -4.6451 C.3     3  LEU33      -0.0446
     29 C          -1.4095   -2.9016   -5.7992 C.2     4  TRP44       0.2343
     30 CB         -3.7256   -2.6610   -4.9187 C.3     4  TRP44       0.0013
     31 C          -1.4003    0.2582   -4.9298 C.2     3  LEU33       0.2340
     32 CG1         1.0168    3.2327  -10.0873 C.3     2  VAL22      -0.0605
     33 CG2         1.3637    4.7493   -8.1228 C.3     2  VAL22      -0.0605
     34 CG         -4.7243   -1.9119   -4.0824 C.ar    4  TRP44      -0.0201
     35 CG         -0.3986   -4.3221  -10.3315 C.2     5  ASP55       0.0440
     36 CD1        -1.3638    4.8988   -5.1471 C.3     3  LEU33      -0.0626
     37 CD2        -3.1747    4.6749   -3.4496 C.3     3  LEU33      -0.0626
     38 CD2        -4.6972   -1.7224   -2.6616 C.ar    4  TRP44       0.0029
     39 CD1        -5.8571   -1.2720   -4.5484 C.ar    4  TRP44       0.0060
     40 CE2        -5.8103   -0.9536   -2.3206 C.ar    4  TRP44       0.0467
     41 CE3        -3.8239   -2.1288   -1.6312 C.ar    4  TRP44      -0.0523
     42 CZ2        -6.0894   -0.5629   -1.0047 C.ar    4  TRP44      -0.0378
     43 CZ3        -4.0851   -1.7435   -0.3111 C.ar    4  TRP44      -0.0611
     44 CH2        -5.2022   -0.9708   -0.0050 C.ar    4  TRP44      -0.0598
@<TRIPOS>BOND
     1     1    18    2
     2     2    19    2
     3     3    24    2
     4     4    29    2
     5     5    31    2
     6     6    35   ar
     7     7    35   ar
     8     8    14    1
     9     8    17    1
    10     8    19   am
    11     9    18   am
    12     9    20    1
    13    10    21    1
    14    10    29   am
    15    11    23    1
    16    11    24   am
    17    12    26    1
    18    12    31   am
    19    13    39   ar
    20    13    40   ar
    21    14    15    1
    22    14    18    1
    23    15    16    1
    24    16    17    1
    25    19    21    1
    26    20    22    1
    27    20    24    1
    28    21    25    1
    29    22    32    1
    30    22    33    1
    31    23    27    1
    32    23    31    1
    33    25    35    1
    34    26    29    1
    35    26    30    1
    36    27    28    1
    37    28    36    1
    38    28    37    1
    39    30    34    1
    40    34    38   ar
    41    34    39   ar
    42    38    40   ar
    43    38    41   ar
    44    40    42   ar
    45    41    43   ar
    46    42    44   ar
    47    43    44   ar
