@<TRIPOS>MOLECULE
BOSENTAN_50CONFORMERS.pdb
 39 42 0 0 0
SMALL
GASTEIGER

@<TRIPOS>ATOM
      1  S1        -2.6800    0.6830    1.1640 S.O2    1  LGD1        0.0943
      2  O2        -3.6470    0.7150    2.2810 O.2     1  LGD1       -0.1483
      3  O3        -1.6560    1.7170    0.9490 O.2     1  LGD1       -0.1483
      4  O4        -2.4670   -2.8890   -0.0130 O.3     1  LGD1       -0.4427
      5  O5        -0.5400   -3.7550   -2.1390 O.3     1  LGD1       -0.4552
      6  O6        -1.4520   -5.5060    0.8680 O.3     1  LGD1       -0.4684
      7  O7        -0.7060   -6.4170   -3.1190 O.3     1  LGD1       -0.2162
      8  N8        -1.7970   -0.6490    1.4540 N.pl3   1  LGD1       -0.0737
      9  N9         0.3320   -0.5010    0.3690 N.ar    1  LGD1       -0.2027
     10  N10        0.9600   -2.1110   -1.3740 N.ar    1  LGD1       -0.1866
     11  N11        3.6490   -1.0730   -1.1010 N.ar    1  LGD1       -0.2224
     12  N12        2.5490    1.0410   -0.5700 N.ar    1  LGD1       -0.2224
     13  C13       -5.2050   -0.5690   -4.3580 C.3     1  LGD1        0.0189
     14  C14       -4.7050   -0.1930   -2.9490 C.ar    1  LGD1       -0.0227
     15  C15       -4.3660   -1.7690   -4.9700 C.3     1  LGD1        0.0044
     16  C16       -5.0370    0.4690   -5.4070 C.3     1  LGD1        0.0044
     17  C17       -6.6710   -0.9630   -4.4050 C.3     1  LGD1        0.0044
     18  C18       -5.5050   -0.2110   -1.7830 C.ar    1  LGD1       -0.0029
     19  C19       -3.3380    0.0550   -2.7740 C.ar    1  LGD1       -0.0029
     20  C20       -3.4780    0.3660   -0.4300 C.ar    1  LGD1        0.1271
     21  C21       -4.8480    0.0070   -0.5390 C.ar    1  LGD1        0.0199
     22  C22       -2.7120    0.4250   -1.6060 C.ar    1  LGD1        0.0199
     23  C23       -0.8360   -1.1500    0.4720 C.ar    1  LGD1        0.2125
     24  C24       -1.1560   -2.3010   -0.2310 C.ar    1  LGD1        0.2327
     25  C25       -0.2200   -2.7350   -1.2290 C.ar    1  LGD1        0.2651
     26  C26        1.2390   -1.0750   -0.5140 C.ar    1  LGD1        0.2028
     27  C27       -2.8490   -4.0780   -0.5980 C.ar    1  LGD1        0.1793
     28  C28        2.5850   -0.3320   -0.7230 C.ar    1  LGD1        0.1990
     29  C29        0.6020   -4.3670   -2.8530 C.3     1  LGD1        0.2426
     30  C30       -2.4150   -5.3520   -0.0960 C.ar    1  LGD1        0.1730
     31  C31       -3.7990   -4.0700   -1.6780 C.ar    1  LGD1        0.0406
     32  C32       -2.9450   -6.5150   -0.7430 C.ar    1  LGD1        0.0401
     33  C33       -0.0230   -5.3210   -3.9020 C.3     1  LGD1        0.2292
     34  C34       -4.3030   -5.2180   -2.2170 C.ar    1  LGD1        0.0033
     35  C35       -3.9160   -6.4400   -1.7650 C.ar    1  LGD1        0.0033
     36  C36        4.8270   -0.4160   -1.3250 C.ar    1  LGD1        0.1023
     37  C37        3.7210    1.7100   -0.8220 C.ar    1  LGD1        0.1023
     38  C38        4.8450    0.9830   -1.2500 C.ar    1  LGD1        0.0414
     39  C39       -2.0250   -5.2490    2.1740 C.3     1  LGD1        0.2526
@<TRIPOS>BOND
     1    33     7    1
     2    33    29    1
     3     5    29    1
     4     5    25    1
     5    10    25   ar
     6    10    26   ar
     7    36    11   ar
     8    36    38   ar
     9    11    28   ar
    10    25    24   ar
    11    38    37   ar
    12    34    31   ar
    13    34    35   ar
    14    28    26    1
    15    28    12   ar
    16    26     9   ar
    17    31    27   ar
    18    37    12   ar
    19    24     4    1
    20    24    23   ar
    21     4    27    1
    22    27    30   ar
    23    35    32   ar
    24    15    13    1
    25     9    23   ar
    26    23     8    1
    27    30    32   ar
    28    30     6    1
    29     6    39    1
    30     8     1    1
    31    18    14   ar
    32    18    21   ar
    33    13    14    1
    34    13    17    1
    35    13    16    1
    36    14    19   ar
    37    21    20   ar
    38    20     1    1
    39    20    22   ar
    40    19    22   ar
    41     1     2    2
    42     1     3    2
@<TRIPOS>MOLECULE
177236
 30 32 0 0 0
SMALL
GASTEIGER

@<TRIPOS>ATOM
      1 O          -5.6461   -2.5404   -3.6449 O.3     1  LIG11      -0.3632
      2 O          -1.8938   -2.3739   -4.2065 O.3     1  LIG11      -0.4494
      3 O          -2.6924   -4.6262   -5.4189 O.co2   1  LIG11      -0.5459
      4 O          -4.4631   -3.5524   -6.3472 O.co2   1  LIG11      -0.5459
      5 O          -1.2473    0.7403   -7.6448 O.3     1  LIG11      -0.4794
      6 O           2.2705   -2.0175   -6.2661 O.3     1  LIG11      -0.4794
      7 N          -1.6212   -0.8521   -5.9554 N.ar    1  LIG11      -0.1594
      8 N           0.1604   -2.2450   -5.2347 N.ar    1  LIG11      -0.1594
      9 C          -4.2243   -2.4745   -3.2999 C.3     1  LIG11       0.1609
     10 C          -3.3056   -2.4553   -4.5686 C.3     1  LIG11       0.1791
     11 C          -3.9428   -3.7379   -2.4407 C.ar    1  LIG11      -0.0075
     12 C          -4.1271   -1.1948   -2.3892 C.ar    1  LIG11      -0.0075
     13 C          -4.6820   -4.9196   -2.6377 C.ar    1  LIG11      -0.0554
     14 C          -5.1047   -0.9871   -1.3896 C.ar    1  LIG11      -0.0554
     15 C          -2.9253   -3.7614   -1.4683 C.ar    1  LIG11      -0.0554
     16 C          -3.1173   -0.2242   -2.4996 C.ar    1  LIG11      -0.0554
     17 C          -3.5207   -3.6745   -5.5075 C.2     1  LIG11       0.0856
     18 C          -6.1413   -1.5584   -4.5444 C.3     1  LIG11       0.0382
     19 C          -4.4363   -6.0649   -1.8750 C.ar    1  LIG11      -0.0614
     20 C          -5.0804    0.1375   -0.5596 C.ar    1  LIG11      -0.0614
     21 C          -2.6848   -4.9041   -0.7000 C.ar    1  LIG11      -0.0614
     22 C          -3.0787    0.8914   -1.6555 C.ar    1  LIG11      -0.0614
     23 C          -3.4429   -6.0544   -0.9011 C.ar    1  LIG11      -0.0617
     24 C          -4.0633    1.0763   -0.6915 C.ar    1  LIG11      -0.0617
     25 C          -1.1198   -1.8612   -5.2274 C.ar    1  LIG11       0.3249
     26 C          -0.7939   -0.2931   -6.8460 C.ar    1  LIG11       0.2240
     27 C           0.9384   -1.6547   -6.1551 C.ar    1  LIG11       0.2240
     28 C           0.5151   -0.6569   -6.9974 C.ar    1  LIG11       0.0617
     29 C          -2.6392    0.9982   -7.4665 C.3     1  LIG11       0.0804
     30 C           2.5886   -3.1641   -5.4813 C.3     1  LIG11       0.0804
@<TRIPOS>BOND
     1     1     9    1
     2     1    18    1
     3     2    10    1
     4     2    25    1
     5     3    17   ar
     6     4    17   ar
     7     5    26    1
     8     5    29    1
     9     6    27    1
    10     6    30    1
    11     7    25   ar
    12     7    26   ar
    13     8    25   ar
    14     8    27   ar
    15     9    10    1
    16     9    11    1
    17     9    12    1
    18    10    17    1
    19    11    13   ar
    20    11    15   ar
    21    12    14   ar
    22    12    16   ar
    23    13    19   ar
    24    14    20   ar
    25    15    21   ar
    26    16    22   ar
    27    19    23   ar
    28    20    24   ar
    29    21    23   ar
    30    22    24   ar
    31    26    28   ar
    32    27    28   ar
