@<TRIPOS>MOLECULE
BOSENTAN_50CONFORMERS.pdb
 39 42 0 0 0
SMALL
GASTEIGER

@<TRIPOS>ATOM
      1  S1        -1.7190   -1.1980    3.1480 S.O2    1  LGD1        0.0943
      2  O2        -1.0650   -2.5580    3.0820 O.2     1  LGD1       -0.1483
      3  O3        -1.0440   -0.0940    3.8910 O.2     1  LGD1       -0.1483
      4  O4        -2.4210   -2.9380   -0.3040 O.3     1  LGD1       -0.4427
      5  O5        -0.4360   -3.8110   -2.0740 O.3     1  LGD1       -0.4552
      6  O6        -4.1480   -4.6140    1.0730 O.3     1  LGD1       -0.4684
      7  O7         0.3790   -6.3290   -1.3010 O.3     1  LGD1       -0.2162
      8  N8        -1.7990   -0.6700    1.5370 N.pl3   1  LGD1       -0.0737
      9  N9         0.3940   -0.5880    0.3840 N.ar    1  LGD1       -0.2027
     10  N10        0.9270   -2.1020   -1.4260 N.ar    1  LGD1       -0.1866
     11  N11        3.3820   -0.9880   -1.4720 N.ar    1  LGD1       -0.2224
     12  N12        2.2790    1.1290   -0.8550 N.ar    1  LGD1       -0.2224
     13  C13       -7.5590   -1.0820    4.8620 C.3     1  LGD1        0.0189
     14  C14       -6.1270   -1.0490    4.3390 C.ar    1  LGD1       -0.0227
     15  C15       -8.3990   -2.3140    4.5870 C.3     1  LGD1        0.0044
     16  C16       -8.3430    0.0760    4.2990 C.3     1  LGD1        0.0044
     17  C17       -7.6530   -0.8810    6.4090 C.3     1  LGD1        0.0044
     18  C18       -5.3940    0.1080    3.9290 C.ar    1  LGD1       -0.0029
     19  C19       -5.4270   -2.2600    4.3400 C.ar    1  LGD1       -0.0029
     20  C20       -3.4020   -1.1640    3.6230 C.ar    1  LGD1        0.1271
     21  C21       -4.0470    0.0480    3.5190 C.ar    1  LGD1        0.0199
     22  C22       -4.1070   -2.3380    3.8750 C.ar    1  LGD1        0.0199
     23  C23       -0.8690   -1.1110    0.5130 C.ar    1  LGD1        0.2125
     24  C24       -1.2210   -2.1680   -0.3820 C.ar    1  LGD1        0.2327
     25  C25       -0.2100   -2.7390   -1.1960 C.ar    1  LGD1        0.2651
     26  C26        1.1950   -1.0880   -0.5480 C.ar    1  LGD1        0.2028
     27  C27       -3.7060   -2.5140   -0.0890 C.ar    1  LGD1        0.1793
     28  C28        2.4070   -0.2460   -0.9000 C.ar    1  LGD1        0.1990
     29  C29        0.6550   -4.4970   -2.7390 C.3     1  LGD1        0.2426
     30  C30       -4.5570   -3.3220    0.6690 C.ar    1  LGD1        0.1730
     31  C31       -4.1460   -1.2830   -0.5860 C.ar    1  LGD1        0.0406
     32  C32       -5.7720   -2.8520    1.1050 C.ar    1  LGD1        0.0401
     33  C33        1.3350   -5.4170   -1.7390 C.3     1  LGD1        0.2292
     34  C34       -5.3860   -0.7930   -0.1220 C.ar    1  LGD1        0.0033
     35  C35       -6.1520   -1.5580    0.7430 C.ar    1  LGD1        0.0033
     36  C36        4.4450   -0.3090   -1.9620 C.ar    1  LGD1        0.1023
     37  C37        3.3930    1.7710   -1.2500 C.ar    1  LGD1        0.1023
     38  C38        4.4320    1.0600   -1.7550 C.ar    1  LGD1        0.0414
     39  C39       -4.5040   -5.5700    0.0920 C.3     1  LGD1        0.2526
@<TRIPOS>BOND
     1    33     7    1
     2    33    29    1
     3     5    29    1
     4     5    25    1
     5    10    25   ar
     6    10    26   ar
     7    36    11   ar
     8    36    38   ar
     9    11    28   ar
    10    25    24   ar
    11    38    37   ar
    12    34    31   ar
    13    34    35   ar
    14    28    26    1
    15    28    12   ar
    16    26     9   ar
    17    31    27   ar
    18    37    12   ar
    19    24     4    1
    20    24    23   ar
    21     4    27    1
    22    27    30   ar
    23    35    32   ar
    24    15    13    1
    25     9    23   ar
    26    23     8    1
    27    30    32   ar
    28    30     6    1
    29     6    39    1
    30     8     1    1
    31    18    14   ar
    32    18    21   ar
    33    13    14    1
    34    13    17    1
    35    13    16    1
    36    14    19   ar
    37    21    20   ar
    38    20     1    1
    39    20    22   ar
    40    19    22   ar
    41     1     2    2
    42     1     3    2
@<TRIPOS>MOLECULE
HTS1204-03362316-01
 44 47 0 0 0
SMALL
USER_CHARGES

@<TRIPOS>ATOM
      1 C1         -5.2677   -3.0192    4.6568 C.ar    1  UNK11      -0.0199
      2 N1         -6.5687   -1.3220    4.0091 N.ar    1  UNK11      -0.3494
      3 C2          0.5529   -5.8190    1.2320 C.2     1  UNK11       0.3028
      4 C3         -6.5661   -2.6347    4.3829 C.ar    1  UNK11       0.0086
      5 C4         -5.2633   -5.5907    2.8440 C.2     1  UNK11       0.2342
      6 C5         -4.4516   -1.8563    4.4605 C.ar    1  UNK11       0.0031
      7 C6         -1.8244   -5.4845    3.4648 C.2     1  UNK11       0.2340
      8 C7         -5.2855   -0.8214    4.0200 C.ar    1  UNK11       0.0491
      9 N2         -0.2138   -4.7851    1.7129 N.am    1  UNK11      -0.2879
     10 N3          0.7102   -5.8016   -0.1498 N.am    1  UNK11      -0.2856
     11 N4         -2.9950   -4.7549    3.4849 N.am    1  UNK11      -0.3022
     12 N5         -4.6651   -6.0317    1.6836 N.am    1  UNK11      -0.3054
     13 C8         -4.2635   -5.3029    3.9832 C.3     1  UNK11       0.1034
     14 C9         -0.5832   -4.6362    3.1243 C.3     1  UNK11       0.1011
     15 C10        -5.4242   -6.4082    0.4697 C.3     1  UNK11       0.0680
     16 C11        -4.8525   -4.4025    5.0885 C.3     1  UNK11       0.0013
     17 C12        -4.9922   -7.7976   -0.0819 C.2     1  UNK11       0.0623
     18 C13        -5.0815   -5.4971   -0.7196 C.3     1  UNK11       0.0133
     19 O1          1.0836   -6.6643    1.9451 O.2     1  UNK11      -0.2526
     20 O2         -1.7852   -6.6801    3.7279 O.2     1  UNK11      -0.2738
     21 O3         -6.4809   -5.5351    3.0041 O.2     1  UNK11      -0.2738
     22 N6         -6.4915   -3.4864   -0.8298 N.ar    1  UNK11      -0.2598
     23 O4         -3.8016   -8.1220    0.2201 O.co2   1  UNK11      -0.5479
     24 C14         0.5611   -4.8594    4.1332 C.3     1  UNK11      -0.0236
     25 C15        -5.3096   -4.0284   -0.4451 C.ar    1  UNK11       0.0434
     26 O5         -5.8461   -8.4175   -0.7736 O.co2   1  UNK11      -0.5479
     27 C16        -7.7555   -0.5765    3.6583 C.3     1  UNK11       0.0119
     28 C17         0.5255   -4.6029   -0.9740 C.3     1  UNK11       0.0161
     29 C18         1.2303   -7.0061   -0.7870 C.3     1  UNK11       0.0161
     30 C19        -4.7911    0.4492    3.6816 C.ar    1  UNK11      -0.0376
     31 C20        -3.0735   -1.5870    4.6022 C.ar    1  UNK11      -0.0523
     32 C21         0.2769   -4.3214    5.5582 C.3     1  UNK11      -0.0446
     33 C22        -6.6969   -2.1845   -0.5389 C.ar    1  UNK11       0.0279
     34 C23        -4.3175   -3.2759    0.1883 C.ar    1  UNK11      -0.0403
     35 C24        -0.6373   -5.2376    6.3787 C.3     1  UNK11      -0.0626
     36 C25         1.5975   -4.1485    6.3152 C.3     1  UNK11      -0.0626
     37 C26         1.2701   -4.5968   -2.3132 C.3     1  UNK11      -0.0371
     38 C27         2.7455   -6.9723   -0.9974 C.3     1  UNK11      -0.0371
     39 C28        -2.5679   -0.3284    4.2584 C.ar    1  UNK11      -0.0611
     40 C29        -3.4171    0.6726    3.7977 C.ar    1  UNK11      -0.0598
     41 C30        -5.7715   -1.3770    0.1004 C.ar    1  UNK11      -0.0436
     42 C31        -4.5565   -1.9366    0.4674 C.ar    1  UNK11      -0.0586
     43 C32         2.7953   -4.6894   -2.2190 C.3     1  UNK11      -0.0516
     44 C33         3.3679   -5.5818   -1.1197 C.3     1  UNK11      -0.0516
@<TRIPOS>BOND
     1     2     4   ar
     2     3     9   am
     3     1     4   ar
     4     5    13    1
     5     1     6   ar
     6     7    11   am
     7     6     8   ar
     8     9    14    1
     9     3    10   am
    10    11    13    1
    11     5    12   am
    12    13    16    1
    13     7    14    1
    14    12    15    1
    15     1    16    1
    16    15    17    1
    17    15    18    1
    18     3    19    2
    19     7    20    2
    20     5    21    2
    21    22    25   ar
    22    17    23   ar
    23    14    24    1
    24    18    25    1
    25    17    26   ar
    26     2    27    1
    27    10    28    1
    28    10    29    1
    29     8    30   ar
    30     6    31   ar
    31    24    32    1
    32    22    33   ar
    33    25    34   ar
    34    32    35    1
    35    32    36    1
    36    28    37    1
    37    29    38    1
    38    31    39   ar
    39    39    40   ar
    40    41    42   ar
    41    34    42   ar
    42    37    43    1
    43    38    44    1
    44     2     8   ar
    45    30    40   ar
    46    33    41   ar
    47    43    44    1
