@<TRIPOS>MOLECULE
BOSENTAN_50CONFORMERS.pdb
 39 42 0 0 0
SMALL
GASTEIGER

@<TRIPOS>ATOM
      1  S1        -1.3660   -0.1150    2.9650 S.O2    1  LGD1        0.0943
      2  O2        -0.3450    0.9870    2.7690 O.2     1  LGD1       -0.1483
      3  O3        -2.6900    0.1410    3.5490 O.2     1  LGD1       -0.1483
      4  O4        -2.4050   -2.8540   -0.1530 O.3     1  LGD1       -0.4427
      5  O5        -0.5460   -3.7560   -2.0460 O.3     1  LGD1       -0.4552
      6  O6        -0.8160   -5.0270    0.8790 O.3     1  LGD1       -0.4684
      7  O7        -0.5110   -6.7440   -2.2490 O.3     1  LGD1       -0.2162
      8  N8        -1.8210   -0.6980    1.4120 N.pl3   1  LGD1       -0.0737
      9  N9         0.4140   -0.5800    0.3940 N.ar    1  LGD1       -0.2027
     10  N10        0.9880   -2.0990   -1.3950 N.ar    1  LGD1       -0.1866
     11  N11        3.3950   -0.7920   -1.7030 N.ar    1  LGD1       -0.2224
     12  N12        2.9800    0.5030    0.3180 N.ar    1  LGD1       -0.2224
     13  C13        1.8080   -4.5960    5.8740 C.3     1  LGD1        0.0189
     14  C14        1.0040   -3.4660    5.1740 C.ar    1  LGD1       -0.0227
     15  C15        2.1120   -5.6800    4.8570 C.3     1  LGD1        0.0044
     16  C16        1.0630   -5.4280    7.0090 C.3     1  LGD1        0.0044
     17  C17        3.0620   -4.0440    6.5230 C.3     1  LGD1        0.0044
     18  C18       -0.3850   -3.2210    5.4020 C.ar    1  LGD1       -0.0029
     19  C19        1.6560   -2.6570    4.2610 C.ar    1  LGD1       -0.0029
     20  C20       -0.3940   -1.3840    3.8730 C.ar    1  LGD1        0.1271
     21  C21       -1.0570   -2.2030    4.7700 C.ar    1  LGD1        0.0199
     22  C22        0.9880   -1.5490    3.6490 C.ar    1  LGD1        0.0199
     23  C23       -0.8700   -1.1650    0.5100 C.ar    1  LGD1        0.2125
     24  C24       -1.1790   -2.2420   -0.2860 C.ar    1  LGD1        0.2327
     25  C25       -0.2200   -2.6970   -1.2090 C.ar    1  LGD1        0.2651
     26  C26        1.2150   -1.0410   -0.5730 C.ar    1  LGD1        0.2028
     27  C27       -2.8340   -3.5430    1.0090 C.ar    1  LGD1        0.1793
     28  C28        2.6270   -0.3960   -0.6610 C.ar    1  LGD1        0.1990
     29  C29        0.5950   -4.5440   -2.3930 C.3     1  LGD1        0.2426
     30  C30       -2.0200   -4.6020    1.5290 C.ar    1  LGD1        0.1730
     31  C31       -3.9100   -3.0570    1.7580 C.ar    1  LGD1        0.0406
     32  C32       -2.3750   -5.1750    2.7290 C.ar    1  LGD1        0.0401
     33  C33        0.0760   -5.8030   -3.1590 C.3     1  LGD1        0.2292
     34  C34       -4.2060   -3.5890    3.0330 C.ar    1  LGD1        0.0033
     35  C35       -3.4170   -4.6480    3.4780 C.ar    1  LGD1        0.0033
     36  C36        4.7210   -0.3690   -1.6230 C.ar    1  LGD1        0.1023
     37  C37        4.2420    1.0110    0.2880 C.ar    1  LGD1        0.1023
     38  C38        5.1370    0.5070   -0.6100 C.ar    1  LGD1        0.0414
     39  C39        0.4630   -4.7420    1.5850 C.3     1  LGD1        0.2526
@<TRIPOS>BOND
     1    33     7    1
     2    33    29    1
     3     5    29    1
     4     5    25    1
     5    10    25   ar
     6    10    26   ar
     7    36    11   ar
     8    36    38   ar
     9    11    28   ar
    10    25    24   ar
    11    38    37   ar
    12    34    31   ar
    13    34    35   ar
    14    28    26    1
    15    28    12   ar
    16    26     9   ar
    17    31    27   ar
    18    37    12   ar
    19    24     4    1
    20    24    23   ar
    21     4    27    1
    22    27    30   ar
    23    35    32   ar
    24    15    13    1
    25     9    23   ar
    26    23     8    1
    27    30    32   ar
    28    30     6    1
    29     6    39    1
    30     8     1    1
    31    18    14   ar
    32    18    21   ar
    33    13    14    1
    34    13    17    1
    35    13    16    1
    36    14    19   ar
    37    21    20   ar
    38    20     1    1
    39    20    22   ar
    40    19    22   ar
    41     1     2    2
    42     1     3    2
@<TRIPOS>MOLECULE
46174111
 29 32 0 0 0
SMALL
GASTEIGER

@<TRIPOS>ATOM
      1 CL         -5.6487    1.1056    2.3813 Cl      1  LIG11      -0.0762
      2 S          -5.7521   -2.4095    3.9603 S.O2    1  LIG11       0.0758
      3 S          -2.4784   -4.6431    2.3947 S.2     1  LIG11      -0.0918
      4 O           0.3772    0.3509    3.9253 O.3     1  LIG11      -0.4526
      5 O           2.6684   -0.3987    3.9899 O.3     1  LIG11      -0.4526
      6 O          -3.4528   -2.9916    5.8235 O.2     1  LIG11      -0.2911
      7 O          -6.2209   -3.3269    4.9739 O.2     1  LIG11      -0.1499
      8 O          -6.6320   -1.9020    2.9311 O.2     1  LIG11      -0.1499
      9 O          -6.2244    0.3561    6.1524 O.2     1  LIG11      -0.3364
     10 N          -4.9172   -1.1425    4.7151 N.pl3   1  LIG11      -0.1821
     11 N          -6.9615    1.5242    6.0379 N.ar    1  LIG11      -0.0798
     12 C          -0.2870   -3.1403    4.9275 C.ar    1  LIG11      -0.0333
     13 C          -1.4182   -4.0895    5.2932 C.3     1  LIG11       0.0366
     14 C           1.0720   -3.5717    4.9852 C.ar    1  LIG11      -0.0432
     15 C          -4.5697   -3.3425    3.0835 C.ar    1  LIG11       0.1261
     16 C          -3.3620   -3.7925    3.6015 C.ar    1  LIG11       0.0814
     17 C          -0.5604   -1.7987    4.5820 C.ar    1  LIG11      -0.0123
     18 C          -2.8228   -3.6028    4.9525 C.2     1  LIG11       0.1759
     19 C           0.4887   -0.9577    4.2775 C.ar    1  LIG11       0.1665
     20 C           1.7892   -1.3828    4.3142 C.ar    1  LIG11       0.1665
     21 C           2.1119   -2.6738    4.6639 C.ar    1  LIG11      -0.0130
     22 C           1.4883   -4.9599    5.4002 C.3     1  LIG11      -0.0393
     23 C          -4.7588   -3.7134    1.7139 C.ar    1  LIG11      -0.0273
     24 C           1.7658    0.7019    3.7523 C.3     1  LIG11       0.2332
     25 C          -3.6913   -4.4221    1.2188 C.ar    1  LIG11      -0.0217
     26 C          -5.7397   -0.0023    4.9320 C.ar    1  LIG11       0.2554
     27 C          -6.0884    0.9628    4.0146 C.ar    1  LIG11       0.1262
     28 C          -6.8734    1.8816    4.7491 C.ar    1  LIG11       0.1009
     29 C          -7.5319    3.1172    4.2666 C.3     1  LIG11      -0.0176
@<TRIPOS>BOND
     1     1    27    1
     2     2    10    1
     3     2    15    1
     4     2     8    2
     5     2     7    2
     6     3    16   ar
     7     3    25   ar
     8     4    24    1
     9     4    19    1
    10     5    20    1
    11     5    24    1
    12     6    18    2
    13     9    11   ar
    14     9    26   ar
    15    10    26    1
    16    11    28   ar
    17    12    17   ar
    18    12    14   ar
    19    13    18    1
    20    13    12    1
    21    14    21   ar
    22    14    22    1
    23    15    23   ar
    24    15    16   ar
    25    16    18    1
    26    17    19   ar
    27    19    20   ar
    28    20    21   ar
    29    23    25   ar
    30    26    27   ar
    31    27    28   ar
    32    28    29    1
