@<TRIPOS>MOLECULE
BOSENTAN_50CONFORMERS.pdb
 39 42 0 0 0
SMALL
GASTEIGER

@<TRIPOS>ATOM
      1  S1        -1.5100   -0.9880    3.0370 S.O2    1  LGD1        0.0943
      2  O2        -0.2560   -1.8180    3.1550 O.2     1  LGD1       -0.1483
      3  O3        -1.5910    0.3650    3.6920 O.2     1  LGD1       -0.1483
      4  O4        -2.2690   -3.0770    0.0830 O.3     1  LGD1       -0.4427
      5  O5        -0.5480   -3.7990   -2.1480 O.3     1  LGD1       -0.4552
      6  O6        -4.1690   -4.3760    1.6800 O.3     1  LGD1       -0.4684
      7  O7        -1.0180   -5.1040   -4.8690 O.3     1  LGD1       -0.2162
      8  N8        -1.7640   -0.6460    1.4110 N.pl3   1  LGD1       -0.0737
      9  N9         0.3460   -0.5210    0.3760 N.ar    1  LGD1       -0.2027
     10  N10        0.9530   -2.0860   -1.3390 N.ar    1  LGD1       -0.1866
     11  N11        2.4420    1.1050   -0.7090 N.ar    1  LGD1       -0.2224
     12  N12        3.6610   -0.9450   -0.6160 N.ar    1  LGD1       -0.2224
     13  C13       -6.1710   -4.1340    5.6560 C.3     1  LGD1        0.0189
     14  C14       -4.9560   -3.4130    4.9570 C.ar    1  LGD1       -0.0227
     15  C15       -6.2850   -3.6090    7.0600 C.3     1  LGD1        0.0044
     16  C16       -5.8910   -5.6590    5.7710 C.3     1  LGD1        0.0044
     17  C17       -7.5560   -4.0550    4.8540 C.3     1  LGD1        0.0044
     18  C18       -5.2310   -2.2320    4.2200 C.ar    1  LGD1       -0.0029
     19  C19       -3.6780   -3.9110    4.9570 C.ar    1  LGD1       -0.0029
     20  C20       -2.9130   -2.0400    3.5880 C.ar    1  LGD1        0.1271
     21  C21       -4.2130   -1.5600    3.5360 C.ar    1  LGD1        0.0199
     22  C22       -2.6320   -3.1780    4.3600 C.ar    1  LGD1        0.0199
     23  C23       -0.8410   -1.1480    0.5000 C.ar    1  LGD1        0.2125
     24  C24       -1.1400   -2.3150   -0.2320 C.ar    1  LGD1        0.2327
     25  C25       -0.2520   -2.7170   -1.2580 C.ar    1  LGD1        0.2651
     26  C26        1.2270   -1.0450   -0.5030 C.ar    1  LGD1        0.2028
     27  C27       -3.5400   -2.5540    0.1290 C.ar    1  LGD1        0.1793
     28  C28        2.5200   -0.2240   -0.5960 C.ar    1  LGD1        0.1990
     29  C29        0.4400   -4.1750   -3.1220 C.3     1  LGD1        0.2426
     30  C30       -4.5150   -3.2670    0.9050 C.ar    1  LGD1        0.1730
     31  C31       -3.9450   -1.4460   -0.6310 C.ar    1  LGD1        0.0406
     32  C32       -5.8070   -2.8390    0.9550 C.ar    1  LGD1        0.0401
     33  C33       -0.0450   -5.4500   -3.7930 C.3     1  LGD1        0.2292
     34  C34       -5.2940   -1.1580   -0.6230 C.ar    1  LGD1        0.0033
     35  C35       -6.2230   -1.7500    0.1870 C.ar    1  LGD1        0.0033
     36  C36        3.5700    1.8230   -0.7500 C.ar    1  LGD1        0.1023
     37  C37        4.8260   -0.2810   -0.6300 C.ar    1  LGD1        0.1023
     38  C38        4.7640    1.1000   -0.6600 C.ar    1  LGD1        0.0414
     39  C39       -4.7020   -5.5430    1.0290 C.3     1  LGD1        0.2526
@<TRIPOS>BOND
     1    33     7    1
     2    33    29    1
     3     5    29    1
     4     5    25    1
     5    10    25   ar
     6    10    26   ar
     7    36    11   ar
     8    36    38   ar
     9    11    28   ar
    10    25    24   ar
    11    38    37   ar
    12    34    31   ar
    13    34    35   ar
    14    28    26    1
    15    28    12   ar
    16    26     9   ar
    17    31    27   ar
    18    37    12   ar
    19    24     4    1
    20    24    23   ar
    21     4    27    1
    22    27    30   ar
    23    35    32   ar
    24    15    13    1
    25     9    23   ar
    26    23     8    1
    27    30    32   ar
    28    30     6    1
    29     6    39    1
    30     8     1    1
    31    18    14   ar
    32    18    21   ar
    33    13    14    1
    34    13    17    1
    35    13    16    1
    36    14    19   ar
    37    21    20   ar
    38    20     1    1
    39    20    22   ar
    40    19    22   ar
    41     1     2    2
    42     1     3    2
@<TRIPOS>MOLECULE
9910224
 30 33 0 0 0
SMALL
GASTEIGER

@<TRIPOS>ATOM
      1 S          -4.3364    0.1813    3.4768 S.O2    1  LIG11       0.0756
      2 O          -3.6552    0.7783    4.6085 O.2     1  LIG11      -0.1499
      3 O          -3.9161    0.5183    2.1327 O.2     1  LIG11      -0.1499
      4 O          -5.9669    2.0372    6.0290 O.3     1  LIG11      -0.4773
      5 O          -4.5565   -1.5369   -3.8247 O.2     1  LIG11      -0.4229
      6 N          -5.9789    0.5384    3.5870 N.pl3   1  LIG11      -0.1951
      7 N          -4.2027   -3.8222    2.8236 N.ar    1  LIG11      -0.2530
      8 N          -7.2112   -1.0924    4.6339 N.ar    1  LIG11      -0.2325
      9 N          -7.0676    0.2603    7.1333 N.ar    1  LIG11      -0.2137
     10 N          -6.5747   -0.6615   -3.4217 N.ar    1  LIG11      -0.1076
     11 N          -6.3328   -0.5710   -4.7788 N.ar    1  LIG11      -0.1156
     12 C          -4.2318   -1.5776    3.6834 C.ar    1  LIG11       0.1344
     13 C          -4.3789   -2.4800    2.6323 C.ar    1  LIG11       0.0975
     14 C          -4.6902   -2.1592    1.2324 C.ar    1  LIG11       0.0023
     15 C          -3.8759   -2.0680    4.9508 C.ar    1  LIG11      -0.0315
     16 C          -5.9417   -1.6697    0.8345 C.ar    1  LIG11      -0.0518
     17 C          -3.7317   -2.3997    0.2332 C.ar    1  LIG11      -0.0518
     18 C          -6.6154    0.1099    4.7738 C.ar    1  LIG11       0.2006
     19 C          -5.2238   -1.5679   -1.4975 C.ar    1  LIG11       0.0385
     20 C          -6.1966   -1.3572   -0.5087 C.ar    1  LIG11      -0.0488
     21 C          -3.9928   -2.1109   -1.1109 C.ar    1  LIG11      -0.0488
     22 C          -3.6995   -3.4326    5.1422 C.ar    1  LIG11      -0.0417
     23 C          -3.8722   -4.2641    4.0555 C.ar    1  LIG11       0.0284
     24 C          -6.5374    0.7831    5.9992 C.ar    1  LIG11       0.2574
     25 C          -5.5119   -1.2308   -2.8861 C.ar    1  LIG11       0.2480
     26 C          -7.6691   -0.9483    7.0059 C.ar    1  LIG11       0.0602
     27 C          -7.7345   -1.6024    5.7767 C.ar    1  LIG11       0.0510
     28 C          -8.2434   -1.5750    8.2381 C.3     1  LIG11      -0.0208
     29 C          -5.8418    2.5729    7.3399 C.3     1  LIG11       0.0805
     30 C          -5.1452   -1.0934   -4.9683 C.ar    1  LIG11       0.2047
@<TRIPOS>BOND
     1     1     2    2
     2     1     3    2
     3     1     6    1
     4     1    12    1
     5     4    24    1
     6     4    29    1
     7     5    25   ar
     8     5    30   ar
     9     6    18    1
    10     7    13   ar
    11     7    23   ar
    12     8    18   ar
    13     8    27   ar
    14     9    24   ar
    15     9    26   ar
    16    10    11   ar
    17    10    25   ar
    18    11    30   ar
    19    12    13   ar
    20    12    15   ar
    21    13    14    1
    22    14    16   ar
    23    14    17   ar
    24    15    22   ar
    25    16    20   ar
    26    17    21   ar
    27    18    24   ar
    28    19    20   ar
    29    19    21   ar
    30    19    25    1
    31    22    23   ar
    32    26    27   ar
    33    26    28    1
