@<TRIPOS>MOLECULE
BOSENTAN_50CONFORMERS.pdb
 39 42 0 0 0
SMALL
GASTEIGER

@<TRIPOS>ATOM
      1  S1        -1.4490   -0.0940    2.9560 S.O2    1  LGD1        0.0943
      2  O2        -0.6240    1.1470    2.7880 O.2     1  LGD1       -0.1483
      3  O3        -2.8460   -0.0310    3.4150 O.2     1  LGD1       -0.1483
      4  O4        -2.3840   -2.7850   -0.2570 O.3     1  LGD1       -0.4427
      5  O5        -0.5460   -3.7510   -2.1030 O.3     1  LGD1       -0.4552
      6  O6        -0.6450   -4.8040    0.7750 O.3     1  LGD1       -0.4684
      7  O7        -0.8830   -5.5220   -4.4490 O.3     1  LGD1       -0.2162
      8  N8        -1.7980   -0.6580    1.3530 N.pl3   1  LGD1       -0.0737
      9  N9         0.4100   -0.5470    0.4560 N.ar    1  LGD1       -0.2027
     10  N10        0.9550   -2.1210   -1.3620 N.ar    1  LGD1       -0.1866
     11  N11        2.6830    0.7690    0.1300 N.ar    1  LGD1       -0.2224
     12  N12        3.2310   -0.6310   -1.8090 N.ar    1  LGD1       -0.2224
     13  C13        1.2750   -4.7890    5.8630 C.3     1  LGD1        0.0189
     14  C14        0.5530   -3.7060    5.0390 C.ar    1  LGD1       -0.0227
     15  C15        2.5330   -5.3980    5.1060 C.3     1  LGD1        0.0044
     16  C16        0.4010   -5.9280    6.3500 C.3     1  LGD1        0.0044
     17  C17        1.9010   -4.1580    7.1590 C.3     1  LGD1        0.0044
     18  C18       -0.8360   -3.7170    4.7560 C.ar    1  LGD1       -0.0029
     19  C19        1.3090   -2.5880    4.6180 C.ar    1  LGD1       -0.0029
     20  C20       -0.6790   -1.5150    3.7350 C.ar    1  LGD1        0.1271
     21  C21       -1.4510   -2.6580    4.0750 C.ar    1  LGD1        0.0199
     22  C22        0.6770   -1.5660    3.9610 C.ar    1  LGD1        0.0199
     23  C23       -0.8380   -1.1710    0.5840 C.ar    1  LGD1        0.2125
     24  C24       -1.1500   -2.2740   -0.3100 C.ar    1  LGD1        0.2327
     25  C25       -0.2310   -2.7580   -1.2060 C.ar    1  LGD1        0.2651
     26  C26        1.1800   -0.9970   -0.6040 C.ar    1  LGD1        0.2028
     27  C27       -2.7950   -3.6620    0.7790 C.ar    1  LGD1        0.1793
     28  C28        2.5110   -0.2550   -0.7330 C.ar    1  LGD1        0.1990
     29  C29        0.4960   -4.6320   -2.5040 C.3     1  LGD1        0.2426
     30  C30       -1.8980   -4.5650    1.3390 C.ar    1  LGD1        0.1730
     31  C31       -4.1250   -3.6780    1.1760 C.ar    1  LGD1        0.0406
     32  C32       -2.4090   -5.4000    2.3060 C.ar    1  LGD1        0.0401
     33  C33       -0.1650   -5.8480   -3.1830 C.3     1  LGD1        0.2292
     34  C34       -4.6090   -4.5870    2.0420 C.ar    1  LGD1        0.0033
     35  C35       -3.7710   -5.4980    2.6050 C.ar    1  LGD1        0.0033
     36  C36        3.9140    1.3700    0.0300 C.ar    1  LGD1        0.1023
     37  C37        4.4240    0.0080   -1.9080 C.ar    1  LGD1        0.1023
     38  C38        4.7880    0.9720   -0.9580 C.ar    1  LGD1        0.0414
     39  C39        0.4930   -4.7900    1.6810 C.3     1  LGD1        0.2526
@<TRIPOS>BOND
     1    33     7    1
     2    33    29    1
     3     5    29    1
     4     5    25    1
     5    10    25   ar
     6    10    26   ar
     7    36    11   ar
     8    36    38   ar
     9    11    28   ar
    10    25    24   ar
    11    38    37   ar
    12    34    31   ar
    13    34    35   ar
    14    28    26    1
    15    28    12   ar
    16    26     9   ar
    17    31    27   ar
    18    37    12   ar
    19    24     4    1
    20    24    23   ar
    21     4    27    1
    22    27    30   ar
    23    35    32   ar
    24    15    13    1
    25     9    23   ar
    26    23     8    1
    27    30    32   ar
    28    30     6    1
    29     6    39    1
    30     8     1    1
    31    18    14   ar
    32    18    21   ar
    33    13    14    1
    34    13    17    1
    35    13    16    1
    36    14    19   ar
    37    21    20   ar
    38    20     1    1
    39    20    22   ar
    40    19    22   ar
    41     1     2    2
    42     1     3    2
@<TRIPOS>MOLECULE
9843631
 28 31 0 0 0
SMALL
GASTEIGER

@<TRIPOS>ATOM
      1 S          -1.5539   -6.6094    3.7076 S.O2    1  LIG11       0.0752
      2 O          -3.1322   -8.5522    6.3378 O.2     1  LIG11      -0.3377
      3 O          -1.7572   -7.9244    3.1356 O.2     1  LIG11      -0.1499
      4 O          -0.2221   -6.0796    3.8809 O.2     1  LIG11      -0.1499
      5 O           2.7329   -0.3274    4.3699 O.2     1  LIG11      -0.4436
      6 N          -2.4113   -6.5398    5.1797 N.pl3   1  LIG11      -0.1831
      7 N          -2.6299   -9.5083    7.1949 N.ar    1  LIG11      -0.0810
      8 N           2.4232   -1.1906    6.4334 N.ar    1  LIG11      -0.2175
      9 C          -2.5544   -5.4693    2.7526 C.ar    1  LIG11       0.1162
     10 C          -2.3352   -4.0784    2.7220 C.ar    1  LIG11       0.0087
     11 C          -1.2237   -3.3620    3.3715 C.ar    1  LIG11      -0.0160
     12 C          -3.6232   -6.0456    2.0332 C.ar    1  LIG11      -0.0345
     13 C          -2.1596   -7.6545    6.0264 C.ar    1  LIG11       0.2399
     14 C          -3.2524   -3.3019    1.9763 C.ar    1  LIG11      -0.0521
     15 C          -1.0142   -7.9589    6.7270 C.ar    1  LIG11       0.0350
     16 C          -1.0845   -3.2893    4.7640 C.ar    1  LIG11      -0.0533
     17 C          -0.2864   -2.6728    2.5820 C.ar    1  LIG11      -0.0533
     18 C          -4.4994   -5.2499    1.3006 C.ar    1  LIG11      -0.0599
     19 C          -4.3190   -3.8747    1.2791 C.ar    1  LIG11      -0.0611
     20 C           0.9134   -1.9019    4.5510 C.ar    1  LIG11       0.0369
     21 C          -1.3609   -9.1530    7.4246 C.ar    1  LIG11       0.0854
     22 C          -0.0197   -2.5844    5.3439 C.ar    1  LIG11      -0.0489
     23 C           0.7609   -1.9482    3.1608 C.ar    1  LIG11      -0.0489
     24 C           0.2681   -7.2216    6.7987 C.3     1  LIG11      -0.0330
     25 C          -0.5246   -9.9597    8.3443 C.3     1  LIG11      -0.0188
     26 C           2.0127   -1.1732    5.1779 C.ar    1  LIG11       0.2271
     27 C           3.6687    0.2118    5.1985 C.ar    1  LIG11       0.1125
     28 C           3.4853   -0.3219    6.4478 C.ar    1  LIG11       0.0663
@<TRIPOS>BOND
     1     1     3    2
     2     1     4    2
     3     1     6    1
     4     1     9    1
     5     2     7   ar
     6     2    13   ar
     7     5    26   ar
     8     5    27   ar
     9     6    13    1
    10     7    21   ar
    11     8    26   ar
    12     8    28   ar
    13     9    10   ar
    14     9    12   ar
    15    10    11    1
    16    10    14   ar
    17    11    16   ar
    18    11    17   ar
    19    12    18   ar
    20    13    15   ar
    21    14    19   ar
    22    15    21   ar
    23    15    24    1
    24    16    22   ar
    25    17    23   ar
    26    18    19   ar
    27    20    22   ar
    28    20    23   ar
    29    20    26    1
    30    21    25    1
    31    27    28   ar
