@<TRIPOS>MOLECULE
BOSENTAN_50CONFORMERS.pdb
 39 42 0 0 0
SMALL
GASTEIGER

@<TRIPOS>ATOM
      1  S1        -2.6800    0.6830    1.1640 S.O2    1  LGD1        0.0943
      2  O2        -3.6470    0.7150    2.2810 O.2     1  LGD1       -0.1483
      3  O3        -1.6560    1.7170    0.9490 O.2     1  LGD1       -0.1483
      4  O4        -2.4670   -2.8890   -0.0130 O.3     1  LGD1       -0.4427
      5  O5        -0.5400   -3.7550   -2.1390 O.3     1  LGD1       -0.4552
      6  O6        -1.4520   -5.5060    0.8680 O.3     1  LGD1       -0.4684
      7  O7        -0.7060   -6.4170   -3.1190 O.3     1  LGD1       -0.2162
      8  N8        -1.7970   -0.6490    1.4540 N.pl3   1  LGD1       -0.0737
      9  N9         0.3320   -0.5010    0.3690 N.ar    1  LGD1       -0.2027
     10  N10        0.9600   -2.1110   -1.3740 N.ar    1  LGD1       -0.1866
     11  N11        3.6490   -1.0730   -1.1010 N.ar    1  LGD1       -0.2224
     12  N12        2.5490    1.0410   -0.5700 N.ar    1  LGD1       -0.2224
     13  C13       -5.2050   -0.5690   -4.3580 C.3     1  LGD1        0.0189
     14  C14       -4.7050   -0.1930   -2.9490 C.ar    1  LGD1       -0.0227
     15  C15       -4.3660   -1.7690   -4.9700 C.3     1  LGD1        0.0044
     16  C16       -5.0370    0.4690   -5.4070 C.3     1  LGD1        0.0044
     17  C17       -6.6710   -0.9630   -4.4050 C.3     1  LGD1        0.0044
     18  C18       -5.5050   -0.2110   -1.7830 C.ar    1  LGD1       -0.0029
     19  C19       -3.3380    0.0550   -2.7740 C.ar    1  LGD1       -0.0029
     20  C20       -3.4780    0.3660   -0.4300 C.ar    1  LGD1        0.1271
     21  C21       -4.8480    0.0070   -0.5390 C.ar    1  LGD1        0.0199
     22  C22       -2.7120    0.4250   -1.6060 C.ar    1  LGD1        0.0199
     23  C23       -0.8360   -1.1500    0.4720 C.ar    1  LGD1        0.2125
     24  C24       -1.1560   -2.3010   -0.2310 C.ar    1  LGD1        0.2327
     25  C25       -0.2200   -2.7350   -1.2290 C.ar    1  LGD1        0.2651
     26  C26        1.2390   -1.0750   -0.5140 C.ar    1  LGD1        0.2028
     27  C27       -2.8490   -4.0780   -0.5980 C.ar    1  LGD1        0.1793
     28  C28        2.5850   -0.3320   -0.7230 C.ar    1  LGD1        0.1990
     29  C29        0.6020   -4.3670   -2.8530 C.3     1  LGD1        0.2426
     30  C30       -2.4150   -5.3520   -0.0960 C.ar    1  LGD1        0.1730
     31  C31       -3.7990   -4.0700   -1.6780 C.ar    1  LGD1        0.0406
     32  C32       -2.9450   -6.5150   -0.7430 C.ar    1  LGD1        0.0401
     33  C33       -0.0230   -5.3210   -3.9020 C.3     1  LGD1        0.2292
     34  C34       -4.3030   -5.2180   -2.2170 C.ar    1  LGD1        0.0033
     35  C35       -3.9160   -6.4400   -1.7650 C.ar    1  LGD1        0.0033
     36  C36        4.8270   -0.4160   -1.3250 C.ar    1  LGD1        0.1023
     37  C37        3.7210    1.7100   -0.8220 C.ar    1  LGD1        0.1023
     38  C38        4.8450    0.9830   -1.2500 C.ar    1  LGD1        0.0414
     39  C39       -2.0250   -5.2490    2.1740 C.3     1  LGD1        0.2526
@<TRIPOS>BOND
     1    33     7    1
     2    33    29    1
     3     5    29    1
     4     5    25    1
     5    10    25   ar
     6    10    26   ar
     7    36    11   ar
     8    36    38   ar
     9    11    28   ar
    10    25    24   ar
    11    38    37   ar
    12    34    31   ar
    13    34    35   ar
    14    28    26    1
    15    28    12   ar
    16    26     9   ar
    17    31    27   ar
    18    37    12   ar
    19    24     4    1
    20    24    23   ar
    21     4    27    1
    22    27    30   ar
    23    35    32   ar
    24    15    13    1
    25     9    23   ar
    26    23     8    1
    27    30    32   ar
    28    30     6    1
    29     6    39    1
    30     8     1    1
    31    18    14   ar
    32    18    21   ar
    33    13    14    1
    34    13    17    1
    35    13    16    1
    36    14    19   ar
    37    21    20   ar
    38    20     1    1
    39    20    22   ar
    40    19    22   ar
    41     1     2    2
    42     1     3    2
@<TRIPOS>MOLECULE
9912992
 34 37 0 0 0
SMALL
GASTEIGER

@<TRIPOS>ATOM
      1 S          -2.6519    0.5515    1.2088 S.O2    1  LIG11       0.0908
      2 O          -2.7144   -2.7877   -0.4560 O.3     1  LIG11      -0.4435
      3 O          -0.8607   -3.2766   -2.5948 O.3     1  LIG11      -0.4771
      4 O          -3.8662    0.5357    2.0067 O.2     1  LIG11      -0.1484
      5 O          -1.6653    1.5897    1.4159 O.2     1  LIG11      -0.1484
      6 O          -4.9180   -3.3370   -1.7952 O.3     1  LIG11      -0.4914
      7 N          -1.9596   -0.9805    1.4573 N.pl3   1  LIG11      -0.1950
      8 N           0.1653   -0.8259    0.5222 N.ar    1  LIG11      -0.2073
      9 N           0.7187   -1.9417   -1.5061 N.ar    1  LIG11      -0.1899
     10 N          -2.1506    0.7575   -1.4040 N.ar    1  LIG11      -0.2351
     11 N           4.9528    0.5907   -0.3757 N.ar    1  LIG11      -0.2632
     12 C          -1.0408   -1.4020    0.4591 C.ar    1  LIG11       0.1882
     13 C          -1.4403   -2.2935   -0.5171 C.ar    1  LIG11       0.2307
     14 C          -3.1612    0.5587   -0.5170 C.ar    1  LIG11       0.1969
     15 C          -0.5055   -2.5064   -1.5065 C.ar    1  LIG11       0.2638
     16 C           1.0082   -1.1167   -0.4808 C.ar    1  LIG11       0.1659
     17 C          -4.4768    0.2962   -0.8653 C.ar    1  LIG11      -0.0160
     18 C           2.3528   -0.5178   -0.4485 C.ar    1  LIG11       0.0222
     19 C          -2.9377   -4.1098   -0.7787 C.ar    1  LIG11       0.1702
     20 C          -3.7619    0.3894   -3.1713 C.ar    1  LIG11      -0.0322
     21 C          -4.7746    0.2131   -2.2226 C.ar    1  LIG11      -0.0541
     22 C          -2.4814    0.6804   -2.7093 C.ar    1  LIG11       0.0327
     23 C          -4.1117   -4.4044   -1.4921 C.ar    1  LIG11       0.1621
     24 C          -2.0840   -5.1378   -0.3587 C.ar    1  LIG11      -0.0157
     25 C          -4.0437    0.3144   -4.6386 C.3     1  LIG11      -0.0383
     26 C           3.1910   -0.5380   -1.5737 C.ar    1  LIG11      -0.0329
     27 C           2.8574    0.0897    0.7104 C.ar    1  LIG11      -0.0329
     28 C          -4.3717   -5.7298   -1.8506 C.ar    1  LIG11      -0.0163
     29 C          -2.3577   -6.4558   -0.7179 C.ar    1  LIG11      -0.0581
     30 C          -3.4926   -6.7490   -1.4710 C.ar    1  LIG11      -0.0581
     31 C           4.4568    0.0203   -1.4911 C.ar    1  LIG11       0.0282
     32 C           4.1393    0.6165    0.6998 C.ar    1  LIG11       0.0282
     33 C           0.2588   -3.8321   -3.2751 C.3     1  LIG11       0.0805
     34 C          -6.2101   -3.6300   -2.3101 C.3     1  LIG11       0.0790
@<TRIPOS>BOND
     1     1     4    2
     2     1     5    2
     3     1     7    1
     4     1    14    1
     5     2    13    1
     6     2    19    1
     7     3    15    1
     8     3    33    1
     9     6    23    1
    10     6    34    1
    11     7    12    1
    12     8    12   ar
    13     8    16   ar
    14     9    15   ar
    15     9    16   ar
    16    10    14   ar
    17    10    22   ar
    18    11    31   ar
    19    11    32   ar
    20    12    13   ar
    21    13    15   ar
    22    14    17   ar
    23    16    18    1
    24    17    21   ar
    25    18    26   ar
    26    18    27   ar
    27    19    23   ar
    28    19    24   ar
    29    20    21   ar
    30    20    22   ar
    31    20    25    1
    32    23    28   ar
    33    24    29   ar
    34    26    31   ar
    35    27    32   ar
    36    28    30   ar
    37    29    30   ar
