@<TRIPOS>MOLECULE
BOSENTAN_50CONFORMERS.pdb
 39 42 0 0 0
SMALL
GASTEIGER

@<TRIPOS>ATOM
      1  S1        -2.5440    0.8820    1.3810 S.O2    1  LGD1        0.0943
      2  O2        -3.0580    1.0090   -0.0300 O.2     1  LGD1       -0.1483
      3  O3        -3.4510    1.0070    2.5580 O.2     1  LGD1       -0.1483
      4  O4        -2.5030   -2.6290   -0.5280 O.3     1  LGD1       -0.4427
      5  O5        -0.4920   -3.8130   -2.0760 O.3     1  LGD1       -0.4552
      6  O6        -2.0670   -1.1970   -2.9360 O.3     1  LGD1       -0.4684
      7  O7         0.0690   -6.9230   -2.9370 O.3     1  LGD1       -0.2162
      8  N8        -1.8600   -0.6450    1.4930 N.pl3   1  LGD1       -0.0737
      9  N9         0.4100   -0.5870    0.4360 N.ar    1  LGD1       -0.2027
     10  N10        0.9660   -2.0980   -1.4610 N.ar    1  LGD1       -0.1866
     11  N11        2.6500    0.7480   -1.3020 N.ar    1  LGD1       -0.2224
     12  N12        3.5170   -0.9850    0.1730 N.ar    1  LGD1       -0.2224
     13  C13        2.2420    4.4520    2.1170 C.3     1  LGD1        0.0189
     14  C14        1.0250    3.4900    1.9820 C.ar    1  LGD1       -0.0227
     15  C15        2.0010    5.4460    3.2800 C.3     1  LGD1        0.0044
     16  C16        2.6730    5.2910    0.8990 C.3     1  LGD1        0.0044
     17  C17        3.5210    3.6960    2.5530 C.3     1  LGD1        0.0044
     18  C18        0.6010    2.6040    3.0120 C.ar    1  LGD1       -0.0029
     19  C19        0.3390    3.5290    0.7610 C.ar    1  LGD1       -0.0029
     20  C20       -1.2400    1.9560    1.6370 C.ar    1  LGD1        0.1271
     21  C21       -0.4570    1.7090    2.7450 C.ar    1  LGD1        0.0199
     22  C22       -0.8450    2.7820    0.5840 C.ar    1  LGD1        0.0199
     23  C23       -0.8540   -1.1040    0.5510 C.ar    1  LGD1        0.2125
     24  C24       -1.1750   -2.2000   -0.3310 C.ar    1  LGD1        0.2327
     25  C25       -0.1850   -2.7510   -1.2360 C.ar    1  LGD1        0.2651
     26  C26        1.1720   -1.0790   -0.5680 C.ar    1  LGD1        0.2028
     27  C27       -3.4940   -1.9040   -1.1530 C.ar    1  LGD1        0.1793
     28  C28        2.5770   -0.4000   -0.6350 C.ar    1  LGD1        0.1990
     29  C29       -0.5060   -5.0230   -1.3510 C.3     1  LGD1        0.2426
     30  C30       -3.3220   -1.2950   -2.4140 C.ar    1  LGD1        0.1730
     31  C31       -4.8550   -2.2290   -0.7620 C.ar    1  LGD1        0.0406
     32  C32       -4.4180   -1.0620   -3.2580 C.ar    1  LGD1        0.0401
     33  C33       -0.9950   -6.1940   -2.2700 C.3     1  LGD1        0.2292
     34  C34       -5.9160   -1.6500   -1.4840 C.ar    1  LGD1        0.0033
     35  C35       -5.6950   -1.1630   -2.7440 C.ar    1  LGD1        0.0033
     36  C36        3.8630    1.3500   -1.3730 C.ar    1  LGD1        0.1023
     37  C37        4.7310   -0.3060    0.2120 C.ar    1  LGD1        0.1023
     38  C38        4.8960    0.8630   -0.5380 C.ar    1  LGD1        0.0414
     39  C39       -1.5870    0.1640   -3.1710 C.3     1  LGD1        0.2526
@<TRIPOS>BOND
     1    33     7    1
     2    33    29    1
     3     5    29    1
     4     5    25    1
     5    10    25   ar
     6    10    26   ar
     7    36    11   ar
     8    36    38   ar
     9    11    28   ar
    10    25    24   ar
    11    38    37   ar
    12    34    31   ar
    13    34    35   ar
    14    28    26    1
    15    28    12   ar
    16    26     9   ar
    17    31    27   ar
    18    37    12   ar
    19    24     4    1
    20    24    23   ar
    21     4    27    1
    22    27    30   ar
    23    35    32   ar
    24    15    13    1
    25     9    23   ar
    26    23     8    1
    27    30    32   ar
    28    30     6    1
    29     6    39    1
    30     8     1    1
    31    18    14   ar
    32    18    21   ar
    33    13    14    1
    34    13    17    1
    35    13    16    1
    36    14    19   ar
    37    21    20   ar
    38    20     1    1
    39    20    22   ar
    40    19    22   ar
    41     1     2    2
    42     1     3    2
@<TRIPOS>MOLECULE
01178588C
 32 34 0 0 0
SMALL
GASTEIGER

@<TRIPOS>ATOM
      1 S          -3.0065   -0.2889    1.1165 S.O2    1  LIG11       0.0756
      2 C          -1.5078   -0.8565    0.3825 C.ar    1  LIG11       0.1344
      3 N          -4.1503   -1.5107    0.8487 N.pl3   1  LIG11      -0.1951
      4 O          -2.8199   -0.3244    2.5530 O.2     1  LIG11      -0.1499
      5 O          -3.4516    0.9022    0.4283 O.2     1  LIG11      -0.1499
      6 C          -0.4143   -0.0009    0.2513 C.ar    1  LIG11       0.0975
      7 C          -1.4201   -2.1539   -0.1402 C.ar    1  LIG11      -0.0315
      8 C          -4.8830   -1.3849   -0.3595 C.ar    1  LIG11       0.2006
      9 C          -0.2615    1.3386    0.8502 C.ar    1  LIG11       0.0023
     10 N           0.7034   -0.3935   -0.4335 N.ar    1  LIG11      -0.2530
     11 C          -0.2742   -2.5522   -0.8181 C.ar    1  LIG11      -0.0417
     12 C          -6.0713   -0.6498   -0.4482 C.ar    1  LIG11       0.2574
     13 N          -4.3285   -2.0028   -1.4214 N.ar    1  LIG11      -0.2325
     14 C          -0.3260    1.5377    2.2384 C.ar    1  LIG11      -0.0523
     15 C           0.0826    2.4439    0.0528 C.ar    1  LIG11      -0.0523
     16 C           0.7491   -1.6380   -0.9491 C.ar    1  LIG11       0.0284
     17 N          -6.7823   -0.5636   -1.5993 N.ar    1  LIG11      -0.2137
     18 O          -6.5741   -0.0849    0.7079 O.3     1  LIG11      -0.4773
     19 C          -5.0314   -1.8890   -2.5732 C.ar    1  LIG11       0.0510
     20 C          -0.0717    2.7914    2.8053 C.ar    1  LIG11      -0.0579
     21 C           0.3520    3.6964    0.6189 C.ar    1  LIG11      -0.0579
     22 C          -6.2367   -1.1936   -2.6697 C.ar    1  LIG11       0.0602
     23 C          -7.4295    1.0193    0.4275 C.3     1  LIG11       0.0805
     24 C           0.2875    3.8792    2.0033 C.ar    1  LIG11      -0.0465
     25 C          -6.9802   -1.1437   -3.9676 C.3     1  LIG11      -0.0208
     26 C           0.6294    5.2161    2.6338 C.3     1  LIG11      -0.0174
     27 C           2.1174    5.4247    3.0031 C.3     1  LIG11       0.0085
     28 C           2.0847    6.8108    3.7090 C.2     1  LIG11       0.0477
     29 C           3.0249    5.5036    1.7698 C.3     1  LIG11      -0.0544
     30 C           2.6544    4.3525    3.9591 C.3     1  LIG11      -0.0544
     31 O           2.1154    7.8188    2.9447 O.co2   1  LIG11      -0.5493
     32 O           1.9988    6.7878    4.9707 O.co2   1  LIG11      -0.5493
@<TRIPOS>BOND
     1     1     5    2
     2     1     4    2
     3     1     3    1
     4     1     2    1
     5     2     6   ar
     6     2     7   ar
     7     3     8    1
     8     6    10   ar
     9     6     9    1
    10     7    11   ar
    11     8    12   ar
    12     8    13   ar
    13     9    14   ar
    14     9    15   ar
    15    10    16   ar
    16    11    16   ar
    17    12    17   ar
    18    12    18    1
    19    13    19   ar
    20    14    20   ar
    21    15    21   ar
    22    17    22   ar
    23    18    23    1
    24    19    22   ar
    25    20    24   ar
    26    21    24   ar
    27    22    25    1
    28    24    26    1
    29    26    27    1
    30    27    30    1
    31    27    29    1
    32    27    28    1
    33    28    32   ar
    34    28    31   ar
