@<TRIPOS>MOLECULE
BOSENTAN_50CONFORMERS.pdb
 39 42 0 0 0
SMALL
GASTEIGER

@<TRIPOS>ATOM
      1  S1        -1.5520    0.6760    2.4160 S.O2    1  LGD1        0.0943
      2  O2        -0.8780    1.7120    1.5880 O.2     1  LGD1       -0.1483
      3  O3        -2.8320    0.9730    3.1390 O.2     1  LGD1       -0.1483
      4  O4        -2.3060   -3.0100    0.0190 O.3     1  LGD1       -0.4427
      5  O5        -0.5220   -3.7750   -2.1340 O.3     1  LGD1       -0.4552
      6  O6        -0.8810   -3.9650    2.2900 O.3     1  LGD1       -0.4684
      7  O7         1.1800   -5.6650   -2.8480 O.3     1  LGD1       -0.2162
      8  N8        -1.8510   -0.6140    1.4210 N.pl3   1  LGD1       -0.0737
      9  N9         0.3760   -0.5420    0.4130 N.ar    1  LGD1       -0.2027
     10  N10        0.9530   -2.1110   -1.4270 N.ar    1  LGD1       -0.1866
     11  N11        3.5960   -1.1520   -0.3830 N.ar    1  LGD1       -0.2224
     12  N12        2.6310    1.0280   -0.8920 N.ar    1  LGD1       -0.2224
     13  C13        2.4660   -1.2960    6.6590 C.3     1  LGD1        0.0189
     14  C14        1.5130   -0.9210    5.5510 C.ar    1  LGD1       -0.0227
     15  C15        1.8460   -0.8510    8.0030 C.3     1  LGD1        0.0044
     16  C16        3.8730   -0.6050    6.6830 C.3     1  LGD1        0.0044
     17  C17        2.6480   -2.8410    6.7990 C.3     1  LGD1        0.0044
     18  C18        0.2630   -1.6020    5.3580 C.ar    1  LGD1       -0.0029
     19  C19        1.7890    0.1150    4.6810 C.ar    1  LGD1       -0.0029
     20  C20       -0.3660    0.0080    3.5740 C.ar    1  LGD1        0.1271
     21  C21       -0.6830   -1.1390    4.4390 C.ar    1  LGD1        0.0199
     22  C22        0.9380    0.5170    3.6570 C.ar    1  LGD1        0.0199
     23  C23       -0.8180   -1.1560    0.5690 C.ar    1  LGD1        0.2125
     24  C24       -1.1340   -2.2690   -0.2590 C.ar    1  LGD1        0.2327
     25  C25       -0.2180   -2.7570   -1.2310 C.ar    1  LGD1        0.2651
     26  C26        1.1960   -1.0530   -0.5450 C.ar    1  LGD1        0.2028
     27  C27       -2.2520   -4.3710    0.3430 C.ar    1  LGD1        0.1793
     28  C28        2.5780   -0.3050   -0.5880 C.ar    1  LGD1        0.1990
     29  C29       -0.0840   -3.7540   -3.5380 C.3     1  LGD1        0.2426
     30  C30       -1.6070   -4.8650    1.5220 C.ar    1  LGD1        0.1730
     31  C31       -2.9680   -5.2660   -0.4740 C.ar    1  LGD1        0.0406
     32  C32       -1.6040   -6.2120    1.7940 C.ar    1  LGD1        0.0401
     33  C33        1.2520   -4.4080   -3.5690 C.3     1  LGD1        0.2292
     34  C34       -3.0030   -6.6730   -0.1350 C.ar    1  LGD1        0.0033
     35  C35       -2.3540   -7.1200    1.0320 C.ar    1  LGD1        0.0033
     36  C36        4.8440   -0.6670   -0.4540 C.ar    1  LGD1        0.1023
     37  C37        3.8960    1.5420   -0.9320 C.ar    1  LGD1        0.1023
     38  C38        5.0200    0.7000   -0.7030 C.ar    1  LGD1        0.0414
     39  C39        0.5660   -4.1080    2.0900 C.3     1  LGD1        0.2526
@<TRIPOS>BOND
     1    33     7    1
     2    33    29    1
     3     5    29    1
     4     5    25    1
     5    10    25   ar
     6    10    26   ar
     7    36    11   ar
     8    36    38   ar
     9    11    28   ar
    10    25    24   ar
    11    38    37   ar
    12    34    31   ar
    13    34    35   ar
    14    28    26    1
    15    28    12   ar
    16    26     9   ar
    17    31    27   ar
    18    37    12   ar
    19    24     4    1
    20    24    23   ar
    21     4    27    1
    22    27    30   ar
    23    35    32   ar
    24    15    13    1
    25     9    23   ar
    26    23     8    1
    27    30    32   ar
    28    30     6    1
    29     6    39    1
    30     8     1    1
    31    18    14   ar
    32    18    21   ar
    33    13    14    1
    34    13    17    1
    35    13    16    1
    36    14    19   ar
    37    21    20   ar
    38    20     1    1
    39    20    22   ar
    40    19    22   ar
    41     1     2    2
    42     1     3    2
@<TRIPOS>MOLECULE
*****
 29 31 0 0 0
SMALL
GASTEIGER

@<TRIPOS>ATOM
      1 BR         -2.9999   -8.4760    0.8432 Br      1  LIG11      -0.0503
      2 BR          0.1214    1.4654    4.7818 Br      1  LIG11      -0.0472
      3 S          -2.3465   -2.7645   -3.9077 S.O2    1  LIG11       0.1079
      4 O           0.5706   -2.6095    1.1267 O.3     1  LIG11      -0.4724
      5 O          -2.8864   -4.1625   -3.2684 O.2     1  LIG11      -0.1383
      6 O          -2.8027   -2.5462   -4.4479 O.2     1  LIG11      -0.1383
      7 O           0.4704   -4.2656    4.0415 O.3     1  LIG11      -0.4590
      8 N          -0.8340   -3.1654   -3.0461 N.3     1  LIG11      -0.1906
      9 N          -2.9714   -2.5104   -1.9142 N.pl3   1  LIG11      -0.1891
     10 N          -1.6882   -0.2149   -1.6088 N.ar    1  LIG11      -0.2186
     11 N           0.0017   -0.7474    0.2716 N.ar    1  LIG11      -0.2008
     12 N           1.8269   -1.9841    4.0369 N.ar    1  LIG11      -0.2022
     13 N          -0.6900   -2.4747    5.0294 N.ar    1  LIG11      -0.2022
     14 C          -1.3226   -2.7551   -0.0803 C.ar    1  LIG11       0.0848
     15 C          -2.0263   -1.4546   -1.2212 C.ar    1  LIG11       0.1532
     16 C          -1.6843   -4.1617    0.2418 C.ar    1  LIG11      -0.0094
     17 C          -0.3605   -2.0068    0.5963 C.ar    1  LIG11       0.2276
     18 C          -2.1240   -4.7121   -0.2450 C.ar    1  LIG11      -0.0527
     19 C          -1.7281   -5.5738    1.6780 C.ar    1  LIG11      -0.0527
     20 C           0.7133   -4.0341    1.0647 C.3     1  LIG11       0.1252
     21 C          -3.2530   -6.1893    0.3408 C.ar    1  LIG11      -0.0472
     22 C          -1.2532   -6.7507    1.7105 C.ar    1  LIG11      -0.0472
     23 C          -0.6055   -0.2031   -0.7836 C.ar    1  LIG11       0.1219
     24 C           1.1610   -4.5745    2.8293 C.3     1  LIG11       0.1267
     25 C          -2.4964   -6.8945    0.7864 C.ar    1  LIG11       0.0179
     26 C           0.3347   -2.9173    4.2792 C.ar    1  LIG11       0.3180
     27 C           1.2319   -0.8294    4.0435 C.ar    1  LIG11       0.0483
     28 C          -0.7153   -1.1468    5.2753 C.ar    1  LIG11       0.0483
     29 C          -0.3052   -0.4344    4.5805 C.ar    1  LIG11       0.0543
@<TRIPOS>BOND
     1     1    25    1
     2     2    29    1
     3     3     9    1
     4     3     8    1
     5     3     6    2
     6     3     5    2
     7     4    17    1
     8     4    20    1
     9     7    24    1
    10     7    26    1
    11     9    15    1
    12    10    15   ar
    13    10    23   ar
    14    11    17   ar
    15    11    23   ar
    16    12    26   ar
    17    12    27   ar
    18    13    26   ar
    19    13    28   ar
    20    14    15   ar
    21    14    17   ar
    22    16    18   ar
    23    16    19   ar
    24    16    14    1
    25    18    21   ar
    26    19    22   ar
    27    20    24    1
    28    21    25   ar
    29    22    25   ar
    30    27    29   ar
    31    28    29   ar
