@<TRIPOS>MOLECULE
BOSENTAN_50CONFORMERS.pdb
 39 42 0 0 0
SMALL
GASTEIGER

@<TRIPOS>ATOM
      1  S1        -1.3920    0.1130    2.7830 S.O2    1  LGD1        0.0943
      2  O2        -0.7240   -0.9390    3.6320 O.2     1  LGD1       -0.1483
      3  O3        -0.6510    1.3520    2.3260 O.2     1  LGD1       -0.1483
      4  O4        -2.4270   -2.8540   -0.2230 O.3     1  LGD1       -0.4427
      5  O5        -0.4910   -3.8040   -1.9810 O.3     1  LGD1       -0.4552
      6  O6        -0.6620   -4.5490    1.1140 O.3     1  LGD1       -0.4684
      7  O7        -0.5420   -5.1280   -5.0100 O.3     1  LGD1       -0.2162
      8  N8        -1.7570   -0.7460    1.4390 N.pl3   1  LGD1       -0.0737
      9  N9         0.3560   -0.5420    0.4180 N.ar    1  LGD1       -0.2027
     10  N10        0.9740   -2.1170   -1.3820 N.ar    1  LGD1       -0.1866
     11  N11        2.5870    0.1690   -2.2190 N.ar    1  LGD1       -0.2224
     12  N12        3.0570    0.1440    0.2340 N.ar    1  LGD1       -0.2224
     13  C13       -6.5500    1.6860    5.8280 C.3     1  LGD1        0.0189
     14  C14       -5.2870    1.2960    4.9490 C.ar    1  LGD1       -0.0227
     15  C15       -6.1970    1.9330    7.3590 C.3     1  LGD1        0.0044
     16  C16       -7.5170    0.4820    5.8200 C.3     1  LGD1        0.0044
     17  C17       -7.4280    2.8470    5.3990 C.3     1  LGD1        0.0044
     18  C18       -4.9800    1.9300    3.7750 C.ar    1  LGD1       -0.0029
     19  C19       -4.4450    0.2370    5.3770 C.ar    1  LGD1       -0.0029
     20  C20       -2.9230    0.4990    3.4880 C.ar    1  LGD1        0.1271
     21  C21       -3.7390    1.6450    3.1250 C.ar    1  LGD1        0.0199
     22  C22       -3.3600   -0.2190    4.6180 C.ar    1  LGD1        0.0199
     23  C23       -0.7890   -1.1580    0.5040 C.ar    1  LGD1        0.2125
     24  C24       -1.2210   -2.1570   -0.3740 C.ar    1  LGD1        0.2327
     25  C25       -0.2720   -2.6980   -1.2850 C.ar    1  LGD1        0.2651
     26  C26        1.1820   -1.0540   -0.5320 C.ar    1  LGD1        0.2028
     27  C27       -2.7750   -3.3860    1.0130 C.ar    1  LGD1        0.1793
     28  C28        2.3360   -0.1700   -0.8770 C.ar    1  LGD1        0.1990
     29  C29       -1.2370   -3.4560   -3.1890 C.3     1  LGD1        0.2426
     30  C30       -1.8930   -4.2200    1.7520 C.ar    1  LGD1        0.1730
     31  C31       -3.9670   -2.9860    1.5410 C.ar    1  LGD1        0.0406
     32  C32       -2.3040   -4.6830    3.0280 C.ar    1  LGD1        0.0401
     33  C33       -1.5920   -4.6880   -4.0550 C.3     1  LGD1        0.2292
     34  C34       -4.4070   -3.5290    2.7460 C.ar    1  LGD1        0.0033
     35  C35       -3.5620   -4.4230    3.4670 C.ar    1  LGD1        0.0033
     36  C36        3.6200    0.9930   -2.3960 C.ar    1  LGD1        0.1023
     37  C37        4.2410    0.8150   -0.0070 C.ar    1  LGD1        0.1023
     38  C38        4.3530    1.3790   -1.2630 C.ar    1  LGD1        0.0414
     39  C39        0.1300   -5.5850    1.8140 C.3     1  LGD1        0.2526
@<TRIPOS>BOND
     1    33     7    1
     2    33    29    1
     3     5    29    1
     4     5    25    1
     5    10    25   ar
     6    10    26   ar
     7    36    11   ar
     8    36    38   ar
     9    11    28   ar
    10    25    24   ar
    11    38    37   ar
    12    34    31   ar
    13    34    35   ar
    14    28    26    1
    15    28    12   ar
    16    26     9   ar
    17    31    27   ar
    18    37    12   ar
    19    24     4    1
    20    24    23   ar
    21     4    27    1
    22    27    30   ar
    23    35    32   ar
    24    15    13    1
    25     9    23   ar
    26    23     8    1
    27    30    32   ar
    28    30     6    1
    29     6    39    1
    30     8     1    1
    31    18    14   ar
    32    18    21   ar
    33    13    14    1
    34    13    17    1
    35    13    16    1
    36    14    19   ar
    37    21    20   ar
    38    20     1    1
    39    20    22   ar
    40    19    22   ar
    41     1     2    2
    42     1     3    2
@<TRIPOS>MOLECULE
123882
 66 71 0 0 0
SMALL
GASTEIGER

@<TRIPOS>ATOM
      1 S          -4.3575   -4.3987    3.0559 S.2     3  UNK33      -0.0993
      2 O          -6.7897    3.0053   -4.1330 O.2     1  UNK11      -0.2755
      3 O         -10.0383    0.0494    5.5857 O.2     4  LEU44      -0.2738
      4 O          -6.2016    1.4830   -0.6031 O.2     1  UNK11      -0.2737
      5 O          -8.5745    1.4053    2.0926 O.2     5  TRP55      -0.2738
      6 O          -8.0630    4.7913    0.2405 O.2     6  ASP66      -0.2738
      7 O          -6.6378   -2.7028    4.2647 O.2     3  UNK33      -0.2734
      8 O          -8.3571   -2.2232    0.0864 O.2     2  ASP22      -0.2737
      9 OD1       -11.3548    4.6753    3.8099 O.co2   6  ASP66      -0.5497
     10 OD2       -12.9491    4.8629    2.1763 O.co2   6  ASP66      -0.5497
     11 OD1        -6.2341   -1.9088   -4.7055 O.co2   2  ASP22      -0.5497
     12 OD2        -8.0119   -0.5339   -4.2591 O.co2   2  ASP22      -0.5497
     13 N          -8.6354    2.6414   -5.4391 N.am    1  UNK11      -0.2984
     14 N          -9.7974    3.0661   -8.0710 N.pl3   1  UNK11      -0.3269
     15 N          -8.9887    2.8382   -0.5448 N.am    1  UNK11      -0.3020
     16 N          -8.0700    0.5024    4.5185 N.am    5  TRP55      -0.3022
     17 N          -8.1599   -1.6618    2.9487 N.am    4  LEU44      -0.3022
     18 N          -9.1527    3.5151    2.7731 N.am    6  ASP66      -0.3021
     19 N          -7.7475    0.2100   -1.6917 N.am    2  ASP22      -0.3021
     20 N          -6.2633   -1.6634    0.7419 N.am    3  UNK33      -0.2984
     21 NE1        -4.1238    2.1706    2.5499 N.ar    5  TRP55      -0.3604
     22 C          -7.8023    2.5838   -6.6427 C.3     1  UNK11       0.0304
     23 C         -10.0643    2.3677   -5.6475 C.3     1  UNK11       0.0304
     24 C          -8.5886    2.2243   -7.9162 C.3     1  UNK11       0.0280
     25 C         -10.6307    3.1698   -6.8423 C.3     1  UNK11       0.0280
     26 C          -7.9947    2.7513   -4.2126 C.2     1  UNK11       0.2179
     27 C          -8.8601    2.6330   -2.9728 C.3     1  UNK11       0.0510
     28 C          -8.0564    2.6770   -1.6695 C.3     1  UNK11       0.1076
     29 CA         -9.2237   -1.5986    3.9692 C.3     4  LEU44       0.0997
     30 CB        -10.5736   -1.7854    3.2490 C.3     4  LEU44      -0.0236
     31 CA         -8.2279    1.9517    4.4466 C.3     5  TRP55       0.1034
     32 C          -9.7754    4.2158   -8.8696 C.ar    1  UNK11       0.0298
     33 CG        -11.8382   -1.9241    4.1195 C.3     4  LEU44      -0.0446
     34 CB         -6.9526    2.6989    4.8525 C.3     5  TRP55       0.0013
     35 C          -9.1805   -0.2748    4.7683 C.2     4  LEU44       0.2340
     36 CA         -9.8813    3.7774    1.5318 C.3     6  ASP66       0.1045
     37 C          -7.2035    1.4246   -1.3234 C.2     1  UNK11       0.2344
     38 CG         -5.7163    2.2819    4.1065 C.ar    5  TRP55      -0.0201
     39 C          -8.6553    2.2497    2.9892 C.2     5  TRP55       0.2343
     40 C          -8.8797    3.8793    0.3580 C.2     6  ASP66       0.2343
     41 CA         -6.9701   -1.0153   -1.5413 C.3     2  ASP22       0.1045
     42 CD2       -11.7148   -3.0145    5.1819 C.3     4  LEU44      -0.0626
     43 CD1       -13.0467   -2.2107    3.2204 C.3     4  LEU44      -0.0626
     44 C          -6.1932   -2.6494    1.8220 C.3     3  UNK33       0.1311
     45 C         -10.9813    4.8405   -9.2373 C.ar    1  UNK11      -0.0407
     46 C          -8.5951    4.8016   -9.3502 C.ar    1  UNK11      -0.0407
     47 CD2        -4.8131    1.2191    4.4437 C.ar    5  TRP55       0.0029
     48 C          -6.9464   -2.2909    3.1454 C.2     3  UNK33       0.2390
     49 CB        -10.6759    5.0756    1.6012 C.3     6  ASP66       0.0138
     50 CD1        -5.2476    2.8463    2.9379 C.ar    5  TRP55       0.0060
     51 CE2        -3.8190    1.1883    3.4638 C.ar    5  TRP55       0.0467
     52 C          -7.2827   -1.6821   -0.1802 C.2     2  ASP22       0.2345
     53 CB         -7.3117   -2.0482   -2.6165 C.3     2  ASP22       0.0138
     54 C         -11.0091    6.0005  -10.0211 C.ar    1  UNK11      -0.0600
     55 C          -8.6127    5.9650  -10.1316 C.ar    1  UNK11      -0.0600
     56 C          -4.7413   -3.0612    2.0316 C.ar    3  UNK33       0.0189
     57 CE3        -4.7631    0.2637    5.4797 C.ar    5  TRP55      -0.0523
     58 C          -9.8203    6.5671  -10.4651 C.ar    1  UNK11      -0.0616
     59 CZ2        -2.7641    0.2696    3.4864 C.ar    5  TRP55      -0.0378
     60 CG        -11.7714    4.8504    2.6256 C.2     6  ASP66       0.0440
     61 CZ3        -3.7260   -0.6746    5.5064 C.ar    5  TRP55      -0.0611
     62 C          -3.5919   -2.6024    1.4029 C.ar    3  UNK33      -0.0493
     63 CH2        -2.7358   -0.6645    4.5286 C.ar    5  TRP55      -0.0598
     64 CG         -7.1604   -1.4365   -3.9951 C.2     2  ASP22       0.0440
     65 C          -2.4144   -3.2967    1.8072 C.ar    3  UNK33      -0.0544
     66 C          -2.6883   -4.2773    2.7301 C.ar    3  UNK33      -0.0240
@<TRIPOS>BOND
     1     1    56   ar
     2     1    66   ar
     3     2    26    2
     4     3    35    2
     5     4    37    2
     6     5    39    2
     7     6    40    2
     8     7    48    2
     9     8    52    2
    10     9    60   ar
    11    10    60   ar
    12    11    64   ar
    13    12    64   ar
    14    13    22    1
    15    13    23    1
    16    14    24    1
    17    14    25    1
    18    14    32    1
    19    15    28    1
    20    15    40   am
    21    16    35   am
    22    16    31    1
    23    17    48   am
    24    17    29    1
    25    18    39   am
    26    18    36    1
    27    19    37   am
    28    19    41    1
    29    20    52   am
    30    20    44    1
    31    21    50   ar
    32    21    51   ar
    33    22    24    1
    34    23    25    1
    35    26    27    1
    36    26    13   am
    37    28    37    1
    38    28    27    1
    39    29    35    1
    40    29    30    1
    41    30    33    1
    42    31    39    1
    43    31    34    1
    44    32    45   ar
    45    32    46   ar
    46    33    43    1
    47    33    42    1
    48    34    38    1
    49    36    40    1
    50    36    49    1
    51    38    47   ar
    52    38    50   ar
    53    41    52    1
    54    41    53    1
    55    44    48    1
    56    44    56    1
    57    45    54   ar
    58    46    55   ar
    59    47    57   ar
    60    47    51   ar
    61    49    60    1
    62    51    59   ar
    63    53    64    1
    64    54    58   ar
    65    55    58   ar
    66    56    62   ar
    67    57    61   ar
    68    59    63   ar
    69    61    63   ar
    70    62    65   ar
    71    65    66   ar
