@<TRIPOS>MOLECULE
BOSENTAN_50CONFORMERS.pdb
 39 42 0 0 0
SMALL
GASTEIGER

@<TRIPOS>ATOM
      1  S1        -2.3120   -1.6410    2.7370 S.O2    1  LGD1        0.0943
      2  O2        -1.5620   -2.9080    2.6480 O.2     1  LGD1       -0.1483
      3  O3        -2.0480   -0.8660    3.9410 O.2     1  LGD1       -0.1483
      4  O4        -2.3080   -2.9470   -0.1270 O.3     1  LGD1       -0.4427
      5  O5        -0.4840   -3.8300   -2.0350 O.3     1  LGD1       -0.4552
      6  O6        -4.3250   -4.9400   -0.1280 O.3     1  LGD1       -0.4684
      7  O7        -2.1120   -5.6410   -3.6980 O.3     1  LGD1       -0.2162
      8  N8        -1.7460   -0.6930    1.5320 N.pl3   1  LGD1       -0.0737
      9  N9         0.3320   -0.5290    0.3740 N.ar    1  LGD1       -0.2027
     10  N10        0.9930   -2.1350   -1.3510 N.ar    1  LGD1       -0.1866
     11  N11        2.7030    0.9770   -0.1940 N.ar    1  LGD1       -0.2224
     12  N12        3.6730   -1.0500   -1.0970 N.ar    1  LGD1       -0.2224
     13  C13       -8.3210   -1.4920    1.9850 C.3     1  LGD1        0.0189
     14  C14       -6.7870   -1.4720    2.0040 C.ar    1  LGD1       -0.0227
     15  C15       -8.9170   -2.6520    2.8130 C.3     1  LGD1        0.0044
     16  C16       -8.8250   -1.7270    0.5110 C.3     1  LGD1        0.0044
     17  C17       -8.9520   -0.1210    2.4900 C.3     1  LGD1        0.0044
     18  C18       -6.0720   -0.2770    2.1190 C.ar    1  LGD1       -0.0029
     19  C19       -6.0790   -2.7020    2.0660 C.ar    1  LGD1       -0.0029
     20  C20       -4.0760   -1.5540    2.4260 C.ar    1  LGD1        0.1271
     21  C21       -4.7120   -0.2910    2.3860 C.ar    1  LGD1        0.0199
     22  C22       -4.7160   -2.7480    2.2750 C.ar    1  LGD1        0.0199
     23  C23       -0.8670   -1.1610    0.4830 C.ar    1  LGD1        0.2125
     24  C24       -1.1980   -2.1910   -0.3690 C.ar    1  LGD1        0.2327
     25  C25       -0.2770   -2.6830   -1.3030 C.ar    1  LGD1        0.2651
     26  C26        1.2290   -1.0550   -0.5230 C.ar    1  LGD1        0.2028
     27  C27       -3.6030   -2.7210   -0.7440 C.ar    1  LGD1        0.1793
     28  C28        2.6120   -0.3340   -0.6040 C.ar    1  LGD1        0.1990
     29  C29       -0.8330   -3.6410   -3.4550 C.3     1  LGD1        0.2426
     30  C30       -4.5790   -3.7080   -0.7380 C.ar    1  LGD1        0.1730
     31  C31       -3.8780   -1.5100   -1.3650 C.ar    1  LGD1        0.0406
     32  C32       -5.8770   -3.4180   -1.2680 C.ar    1  LGD1        0.0401
     33  C33       -1.0170   -4.9460   -4.2160 C.3     1  LGD1        0.2292
     34  C34       -5.1320   -1.2460   -1.8500 C.ar    1  LGD1        0.0033
     35  C35       -6.1880   -2.1660   -1.7110 C.ar    1  LGD1        0.0033
     36  C36        3.8760    1.6480   -0.2450 C.ar    1  LGD1        0.1023
     37  C37        4.8630   -0.3620   -1.2110 C.ar    1  LGD1        0.1023
     38  C38        4.9200    0.9440   -0.7790 C.ar    1  LGD1        0.0414
     39  C39       -4.3840   -6.1090   -0.9810 C.3     1  LGD1        0.2526
@<TRIPOS>BOND
     1    33     7    1
     2    33    29    1
     3     5    29    1
     4     5    25    1
     5    10    25   ar
     6    10    26   ar
     7    36    11   ar
     8    36    38   ar
     9    11    28   ar
    10    25    24   ar
    11    38    37   ar
    12    34    31   ar
    13    34    35   ar
    14    28    26    1
    15    28    12   ar
    16    26     9   ar
    17    31    27   ar
    18    37    12   ar
    19    24     4    1
    20    24    23   ar
    21     4    27    1
    22    27    30   ar
    23    35    32   ar
    24    15    13    1
    25     9    23   ar
    26    23     8    1
    27    30    32   ar
    28    30     6    1
    29     6    39    1
    30     8     1    1
    31    18    14   ar
    32    18    21   ar
    33    13    14    1
    34    13    17    1
    35    13    16    1
    36    14    19   ar
    37    21    20   ar
    38    20     1    1
    39    20    22   ar
    40    19    22   ar
    41     1     2    2
    42     1     3    2
@<TRIPOS>MOLECULE
*****
 39 42 0 0 0
SMALL
GASTEIGER

@<TRIPOS>ATOM
      1 C          -3.9311   -3.5717   -7.6719 C.ar    1  LIG11       0.0483
      2 C          -3.4410   -4.7924   -8.0705 C.ar    1  LIG11       0.0543
      3 C          -2.2886   -5.2026   -7.4412 C.ar    1  LIG11       0.0483
      4 N          -1.6555   -4.4772   -6.4933 N.ar    1  LIG11      -0.2022
      5 N          -3.3444   -2.8077   -6.7269 N.ar    1  LIG11      -0.2022
      6 C          -6.1174   -2.4075   -1.8916 C.ar    1  LIG11      -0.0504
      7 C          -5.3727   -3.5294   -1.5199 C.ar    1  LIG11      -0.0583
      8 C          -4.0249   -3.4012   -1.1666 C.ar    1  LIG11      -0.0535
      9 C          -3.3847   -2.1510   -1.1750 C.ar    1  LIG11      -0.0094
     10 C          -4.1611   -1.0261   -1.5017 C.ar    1  LIG11      -0.0535
     11 C          -5.5100   -1.1503   -1.8485 C.ar    1  LIG11      -0.0583
     12 C          -6.3032   -0.3353    2.6516 C.ar    1  LIG11      -0.0561
     13 C          -4.9160   -0.1890    2.5546 C.ar    1  LIG11      -0.0348
     14 C          -4.1179   -1.3177    2.3799 C.ar    1  LIG11       0.1086
     15 C          -4.6945   -2.5838    2.3209 C.ar    1  LIG11      -0.0348
     16 C          -6.0831   -2.7191    2.4122 C.ar    1  LIG11      -0.0561
     17 C          -8.4534   -1.7349    2.7067 C.3     1  LIG11       0.0132
     18 C          -6.9212   -1.6017    2.5721 C.ar    1  LIG11      -0.0394
     19 C          -8.8381   -1.4347    4.1711 C.3     1  LIG11      -0.0537
     20 C          -9.0198   -3.1292    2.2918 C.3     1  LIG11       0.0533
     21 C          -9.1554   -0.7063    1.7852 C.3     1  LIG11      -0.0537
     22 O          -8.7026   -4.1794    3.2025 O.3     1  LIG11      -0.3942
     23 S          -2.3519   -1.1465    2.3489 S.O2    1  LIG11       0.0735
     24 O          -2.0151   -0.1857    3.3793 O.2     1  LIG11      -0.1499
     25 O          -1.7698   -2.4722    2.3340 O.2     1  LIG11      -0.1499
     26 N          -2.0882   -0.3550    0.8736 N.pl3   1  LIG11      -0.1988
     27 C          -1.9340   -2.0222   -0.9449 C.ar    1  LIG11       0.0847
     28 C          -0.9862   -2.7157   -1.6927 C.ar    1  LIG11       0.2276
     29 N           0.3502   -2.5553   -1.5877 N.ar    1  LIG11      -0.2008
     30 C           0.7581   -1.6468   -0.6966 C.ar    1  LIG11       0.1219
     31 N          -0.0323   -0.8957    0.0727 N.ar    1  LIG11      -0.2186
     32 C          -1.3506   -1.1236   -0.0656 C.ar    1  LIG11       0.1524
     33 C          -7.5508   -2.5399   -2.3094 C.3     1  LIG11      -0.0397
     34 O          -1.4541   -3.6416   -2.6035 O.3     1  LIG11      -0.4724
     35 C          -0.5404   -4.0296   -3.6324 C.3     1  LIG11       0.1252
     36 C          -0.4005   -2.9479   -4.7087 C.3     1  LIG11       0.1267
     37 O          -1.6647   -2.5028   -5.2073 O.3     1  LIG11      -0.4590
     38 C          -2.2257   -3.3019   -6.1740 C.ar    1  LIG11       0.3180
     39 BR         -4.2856   -5.8289   -9.3874 Br      1  LIG11      -0.0472
@<TRIPOS>BOND
     1     1     2   ar
     2     2     3   ar
     3     2    39    1
     4     3     4   ar
     5     4    38   ar
     6     5     1   ar
     7     6     7   ar
     8     6    33    1
     9     7     8   ar
    10     8     9   ar
    11     9    10   ar
    12    10    11   ar
    13    11     6   ar
    14    12    13   ar
    15    13    14   ar
    16    14    15   ar
    17    15    16   ar
    18    16    18   ar
    19    17    18    1
    20    17    21    1
    21    17    20    1
    22    17    19    1
    23    18    12   ar
    24    20    22    1
    25    23    26    1
    26    23    25    2
    27    23    24    2
    28    23    14    1
    29    26    32    1
    30    27    28   ar
    31    27     9    1
    32    28    29   ar
    33    29    30   ar
    34    30    31   ar
    35    31    32   ar
    36    32    27   ar
    37    34    35    1
    38    34    28    1
    39    35    36    1
    40    36    37    1
    41    37    38    1
    42    38     5   ar
