@<TRIPOS>MOLECULE
BOSENTAN_50CONFORMERS.pdb
 39 42 0 0 0
SMALL
GASTEIGER

@<TRIPOS>ATOM
      1  S1        -2.5440    0.8820    1.3810 S.O2    1  LGD1        0.0943
      2  O2        -3.0580    1.0090   -0.0300 O.2     1  LGD1       -0.1483
      3  O3        -3.4510    1.0070    2.5580 O.2     1  LGD1       -0.1483
      4  O4        -2.5030   -2.6290   -0.5280 O.3     1  LGD1       -0.4427
      5  O5        -0.4920   -3.8130   -2.0760 O.3     1  LGD1       -0.4552
      6  O6        -2.0670   -1.1970   -2.9360 O.3     1  LGD1       -0.4684
      7  O7         0.0690   -6.9230   -2.9370 O.3     1  LGD1       -0.2162
      8  N8        -1.8600   -0.6450    1.4930 N.pl3   1  LGD1       -0.0737
      9  N9         0.4100   -0.5870    0.4360 N.ar    1  LGD1       -0.2027
     10  N10        0.9660   -2.0980   -1.4610 N.ar    1  LGD1       -0.1866
     11  N11        2.6500    0.7480   -1.3020 N.ar    1  LGD1       -0.2224
     12  N12        3.5170   -0.9850    0.1730 N.ar    1  LGD1       -0.2224
     13  C13        2.2420    4.4520    2.1170 C.3     1  LGD1        0.0189
     14  C14        1.0250    3.4900    1.9820 C.ar    1  LGD1       -0.0227
     15  C15        2.0010    5.4460    3.2800 C.3     1  LGD1        0.0044
     16  C16        2.6730    5.2910    0.8990 C.3     1  LGD1        0.0044
     17  C17        3.5210    3.6960    2.5530 C.3     1  LGD1        0.0044
     18  C18        0.6010    2.6040    3.0120 C.ar    1  LGD1       -0.0029
     19  C19        0.3390    3.5290    0.7610 C.ar    1  LGD1       -0.0029
     20  C20       -1.2400    1.9560    1.6370 C.ar    1  LGD1        0.1271
     21  C21       -0.4570    1.7090    2.7450 C.ar    1  LGD1        0.0199
     22  C22       -0.8450    2.7820    0.5840 C.ar    1  LGD1        0.0199
     23  C23       -0.8540   -1.1040    0.5510 C.ar    1  LGD1        0.2125
     24  C24       -1.1750   -2.2000   -0.3310 C.ar    1  LGD1        0.2327
     25  C25       -0.1850   -2.7510   -1.2360 C.ar    1  LGD1        0.2651
     26  C26        1.1720   -1.0790   -0.5680 C.ar    1  LGD1        0.2028
     27  C27       -3.4940   -1.9040   -1.1530 C.ar    1  LGD1        0.1793
     28  C28        2.5770   -0.4000   -0.6350 C.ar    1  LGD1        0.1990
     29  C29       -0.5060   -5.0230   -1.3510 C.3     1  LGD1        0.2426
     30  C30       -3.3220   -1.2950   -2.4140 C.ar    1  LGD1        0.1730
     31  C31       -4.8550   -2.2290   -0.7620 C.ar    1  LGD1        0.0406
     32  C32       -4.4180   -1.0620   -3.2580 C.ar    1  LGD1        0.0401
     33  C33       -0.9950   -6.1940   -2.2700 C.3     1  LGD1        0.2292
     34  C34       -5.9160   -1.6500   -1.4840 C.ar    1  LGD1        0.0033
     35  C35       -5.6950   -1.1630   -2.7440 C.ar    1  LGD1        0.0033
     36  C36        3.8630    1.3500   -1.3730 C.ar    1  LGD1        0.1023
     37  C37        4.7310   -0.3060    0.2120 C.ar    1  LGD1        0.1023
     38  C38        4.8960    0.8630   -0.5380 C.ar    1  LGD1        0.0414
     39  C39       -1.5870    0.1640   -3.1710 C.3     1  LGD1        0.2526
@<TRIPOS>BOND
     1    33     7    1
     2    33    29    1
     3     5    29    1
     4     5    25    1
     5    10    25   ar
     6    10    26   ar
     7    36    11   ar
     8    36    38   ar
     9    11    28   ar
    10    25    24   ar
    11    38    37   ar
    12    34    31   ar
    13    34    35   ar
    14    28    26    1
    15    28    12   ar
    16    26     9   ar
    17    31    27   ar
    18    37    12   ar
    19    24     4    1
    20    24    23   ar
    21     4    27    1
    22    27    30   ar
    23    35    32   ar
    24    15    13    1
    25     9    23   ar
    26    23     8    1
    27    30    32   ar
    28    30     6    1
    29     6    39    1
    30     8     1    1
    31    18    14   ar
    32    18    21   ar
    33    13    14    1
    34    13    17    1
    35    13    16    1
    36    14    19   ar
    37    21    20   ar
    38    20     1    1
    39    20    22   ar
    40    19    22   ar
    41     1     2    2
    42     1     3    2
@<TRIPOS>MOLECULE
01479498K
 34 38 0 0 0
SMALL
GASTEIGER

@<TRIPOS>ATOM
      1 C          -0.6492    1.7874   -1.0272 C.3     1  LIG11       0.1526
      2 C          -1.9489    1.1085   -1.3648 C.2     1  LIG11       0.0278
      3 C          -0.5395    2.3164    0.4204 C.ar    1  LIG11       0.0009
      4 O           0.4978    0.9469   -1.3459 O.3     1  LIG11      -0.4789
      5 C          -2.1126   -0.2297   -1.3494 C.2     1  LIG11       0.0016
      6 C          -3.0330    2.0590   -1.8676 C.2     1  LIG11       0.0721
      7 C          -1.5422    3.1491    0.9571 C.ar    1  LIG11      -0.0091
      8 C           0.5929    2.0343    1.2313 C.ar    1  LIG11      -0.0511
      9 C           0.3431   -0.3775   -1.0254 C.ar    1  LIG11       0.1298
     10 C          -0.9070   -0.9983   -0.9743 C.ar    1  LIG11       0.0283
     11 C          -3.4011   -0.8422   -1.7355 C.ar    1  LIG11      -0.0165
     12 O          -2.7627    2.6284   -2.9633 O.co2   1  LIG11      -0.5448
     13 O          -4.0209    2.2217   -1.0979 O.co2   1  LIG11      -0.5448
     14 C          -1.4037    3.6129    2.2509 C.ar    1  LIG11       0.1666
     15 C           0.7075    2.5156    2.5415 C.ar    1  LIG11      -0.0158
     16 C           1.5086   -1.0936   -0.7572 C.ar    1  LIG11      -0.0158
     17 C          -0.9729   -2.3571   -0.6216 C.ar    1  LIG11      -0.0087
     18 C          -3.6049   -1.3013   -3.0400 C.ar    1  LIG11      -0.0505
     19 C          -4.4172   -1.0028   -0.7874 C.ar    1  LIG11      -0.0505
     20 C          -0.3117    3.2995    3.0225 C.ar    1  LIG11       0.1662
     21 O          -2.2859    4.4144    2.9077 O.3     1  LIG11      -0.4526
     22 C           1.4271   -2.4366   -0.3947 C.ar    1  LIG11      -0.0164
     23 C           0.1888   -3.0784   -0.3353 C.ar    1  LIG11       0.1217
     24 C          -4.8102   -1.9189   -3.3858 C.ar    1  LIG11      -0.0194
     25 C          -5.6231   -1.6194   -1.1354 C.ar    1  LIG11      -0.0194
     26 O          -0.3706    3.8544    4.2630 O.3     1  LIG11      -0.4526
     27 C          -1.6374    4.5395    4.1853 C.3     1  LIG11       0.2332
     28 O           0.2480   -4.3967    0.0241 O.3     1  LIG11      -0.4893
     29 C          -5.8262   -2.0734   -2.4396 C.ar    1  LIG11       0.1201
     30 C          -0.8426   -5.2514   -0.3411 C.3     1  LIG11       0.0946
     31 O          -6.9602   -2.6902   -2.8978 O.3     1  LIG11      -0.4951
     32 C          -0.8032   -5.5555   -1.8378 C.3     1  LIG11      -0.0281
     33 C          -0.6636   -6.5438    0.4539 C.3     1  LIG11      -0.0281
     34 C          -8.1301   -2.4891   -2.1139 C.3     1  LIG11       0.0788
@<TRIPOS>BOND
     1     1     4    1
     2     1     2    1
     3     1     3    1
     4     2     5    2
     5     2     6    1
     6     3     8   ar
     7     3     7   ar
     8     4     9    1
     9     5    10    1
    10     5    11    1
    11     6    13   ar
    12     6    12   ar
    13     7    14   ar
    14     8    15   ar
    15     9    16   ar
    16     9    10   ar
    17    10    17   ar
    18    11    18   ar
    19    11    19   ar
    20    14    21    1
    21    14    20   ar
    22    15    20   ar
    23    16    22   ar
    24    17    23   ar
    25    18    24   ar
    26    19    25   ar
    27    20    26    1
    28    21    27    1
    29    22    23   ar
    30    23    28    1
    31    24    29   ar
    32    25    29   ar
    33    26    27    1
    34    28    30    1
    35    29    31    1
    36    30    33    1
    37    30    32    1
    38    31    34    1
