@<TRIPOS>MOLECULE
BOSENTAN_50CONFORMERS.pdb
 39 42 0 0 0
SMALL
GASTEIGER

@<TRIPOS>ATOM
      1  S1        -1.1700    0.2660    2.7960 S.O2    1  LGD1        0.0943
      2  O2        -2.3120    0.1460    3.7780 O.2     1  LGD1       -0.1483
      3  O3         0.0660   -0.4020    3.1490 O.2     1  LGD1       -0.1483
      4  O4        -2.3030   -3.0520   -0.0210 O.3     1  LGD1       -0.4427
      5  O5        -0.5080   -3.7630   -2.1070 O.3     1  LGD1       -0.4552
      6  O6        -4.2400   -4.8760   -0.5870 O.3     1  LGD1       -0.4684
      7  O7         0.6430   -5.0130   -4.3100 O.3     1  LGD1       -0.2162
      8  N8        -1.7810   -0.6460    1.4470 N.pl3   1  LGD1       -0.0737
      9  N9         0.3600   -0.5270    0.3660 N.ar    1  LGD1       -0.2027
     10  N10        0.9810   -2.1210   -1.3830 N.ar    1  LGD1       -0.1866
     11  N11        3.0620   -0.3270   -2.0010 N.ar    1  LGD1       -0.2224
     12  N12        3.1320    0.1520    0.4370 N.ar    1  LGD1       -0.2224
     13  C13       -0.8330    5.8830    0.4260 C.3     1  LGD1        0.0189
     14  C14       -0.8590    4.4120    1.0880 C.ar    1  LGD1       -0.0227
     15  C15       -1.6970    6.9930    1.1050 C.3     1  LGD1        0.0044
     16  C16       -1.2020    5.7760   -1.0360 C.3     1  LGD1        0.0044
     17  C17        0.5830    6.4810    0.5310 C.3     1  LGD1        0.0044
     18  C18        0.3250    3.6330    1.1220 C.ar    1  LGD1       -0.0029
     19  C19       -2.0800    3.9710    1.6720 C.ar    1  LGD1       -0.0029
     20  C20       -0.9130    1.8850    2.1890 C.ar    1  LGD1        0.1271
     21  C21        0.3030    2.3870    1.6940 C.ar    1  LGD1        0.0199
     22  C22       -2.1130    2.6550    2.1200 C.ar    1  LGD1        0.0199
     23  C23       -0.8770   -1.1700    0.4820 C.ar    1  LGD1        0.2125
     24  C24       -1.1470   -2.3030   -0.2420 C.ar    1  LGD1        0.2327
     25  C25       -0.2850   -2.6920   -1.2420 C.ar    1  LGD1        0.2651
     26  C26        1.2390   -1.0560   -0.5130 C.ar    1  LGD1        0.2028
     27  C27       -2.1570   -4.3020    0.5790 C.ar    1  LGD1        0.1793
     28  C28        2.6600   -0.4250   -0.6870 C.ar    1  LGD1        0.1990
     29  C29       -0.7940   -3.2560   -3.4160 C.3     1  LGD1        0.2426
     30  C30       -3.1940   -5.2600    0.2390 C.ar    1  LGD1        0.1730
     31  C31       -1.1590   -4.6270    1.4470 C.ar    1  LGD1        0.0406
     32  C32       -3.2060   -6.4740    0.9090 C.ar    1  LGD1        0.0401
     33  C33       -0.6570   -4.4180   -4.3950 C.3     1  LGD1        0.2292
     34  C34       -1.2280   -5.8510    2.1100 C.ar    1  LGD1        0.0033
     35  C35       -2.1760   -6.7850    1.7530 C.ar    1  LGD1        0.0033
     36  C36        4.2930    0.3650   -2.1720 C.ar    1  LGD1        0.1023
     37  C37        4.2350    0.9270    0.2590 C.ar    1  LGD1        0.1023
     38  C38        4.7960    1.0300   -1.0420 C.ar    1  LGD1        0.0414
     39  C39       -4.0560   -5.5850   -1.8220 C.3     1  LGD1        0.2526
@<TRIPOS>BOND
     1    33     7    1
     2    33    29    1
     3     5    29    1
     4     5    25    1
     5    10    25   ar
     6    10    26   ar
     7    36    11   ar
     8    36    38   ar
     9    11    28   ar
    10    25    24   ar
    11    38    37   ar
    12    34    31   ar
    13    34    35   ar
    14    28    26    1
    15    28    12   ar
    16    26     9   ar
    17    31    27   ar
    18    37    12   ar
    19    24     4    1
    20    24    23   ar
    21     4    27    1
    22    27    30   ar
    23    35    32   ar
    24    15    13    1
    25     9    23   ar
    26    23     8    1
    27    30    32   ar
    28    30     6    1
    29     6    39    1
    30     8     1    1
    31    18    14   ar
    32    18    21   ar
    33    13    14    1
    34    13    17    1
    35    13    16    1
    36    14    19   ar
    37    21    20   ar
    38    20     1    1
    39    20    22   ar
    40    19    22   ar
    41     1     2    2
    42     1     3    2
@<TRIPOS>MOLECULE
2-[[2-[2-butyl-4-[(Z)-2-carboxy-3-(6-methoxy-1,3-benzodioxol-5-yl)prop-1-enyl]pyrazol-3-yl]-5-methoxyphenoxy]methyl]benzoic acid
 45 49 0 0 0
SMALL
GASTEIGER

@<TRIPOS>ATOM
      1 O           1.2456    0.9454   -0.1866 O.3     1  LIG11      -0.4866
      2 O          -4.4016   -5.1162    0.1991 O.3     1  LIG11      -0.4526
      3 O          -3.1573   -6.5624   -1.2757 O.3     1  LIG11      -0.4525
      4 O           0.8888   -5.9850    1.3164 O.3     1  LIG11      -0.4947
      5 O           5.9985    0.7595   -1.3683 O.3     1  LIG11      -0.4950
      6 O           0.2589   -2.3655    5.1618 O.co2   1  LIG11      -0.5449
      7 O           2.2594   -2.1878    4.0712 O.co2   1  LIG11      -0.5449
      8 O           0.3462    3.8734   -1.7852 O.co2   1  LIG11      -0.5446
      9 O          -1.9033    3.7236   -1.8841 O.co2   1  LIG11      -0.5446
     10 N           0.2759   -2.2615   -1.7669 N.ar    1  LIG11      -0.2630
     11 N          -1.0162   -2.5044   -1.4713 N.ar    1  LIG11      -0.1785
     12 C           1.0096   -1.8148   -0.6837 C.ar    1  LIG11       0.0795
     13 C           0.7411   -2.5461   -3.1145 C.3     1  LIG11       0.0422
     14 C           0.3832   -3.9628   -3.6023 C.3     1  LIG11      -0.0336
     15 C           0.2111   -2.1134    0.4121 C.ar    1  LIG11       0.0207
     16 C           2.3014   -1.1167   -0.7849 C.ar    1  LIG11       0.0425
     17 C          -0.9703   -4.0740   -4.3164 C.3     1  LIG11      -0.0542
     18 C          -1.0542   -2.3539   -0.1461 C.ar    1  LIG11       0.0571
     19 C           0.5974   -2.0222    1.7828 C.2     1  LIG11      -0.0459
     20 C          -0.4590   -4.1140    3.0326 C.3     1  LIG11       0.0029
     21 C           2.3938    0.2785   -0.5661 C.ar    1  LIG11       0.1336
     22 C           0.3228   -2.8368    2.8241 C.2     1  LIG11      -0.0200
     23 C          -1.1283   -4.8249    1.8750 C.ar    1  LIG11       0.0023
     24 C           3.4557   -1.8263   -1.1461 C.ar    1  LIG11      -0.0456
     25 C          -0.9987   -3.3394   -5.6486 C.3     1  LIG11      -0.0652
     26 C           3.6243    0.9276   -0.7711 C.ar    1  LIG11       0.0224
     27 C          -0.4183   -5.6961    1.0138 C.ar    1  LIG11       0.1273
     28 C          -2.5088   -4.6304    1.6602 C.ar    1  LIG11      -0.0092
     29 C           4.6720   -1.1637   -1.3380 C.ar    1  LIG11      -0.0191
     30 C          -3.0998   -5.2434    0.5752 C.ar    1  LIG11       0.1667
     31 C           4.7622    0.2134   -1.1425 C.ar    1  LIG11       0.1236
     32 C          -2.3889   -6.0644   -0.2667 C.ar    1  LIG11       0.1697
     33 C          -1.0542   -6.3329   -0.0618 C.ar    1  LIG11       0.0258
     34 C           1.0172   -2.4044    4.1430 C.2     1  LIG11       0.0680
     35 C           1.4290    2.2455    0.3842 C.3     1  LIG11       0.1153
     36 C          -4.3822   -5.8337   -1.0492 C.3     1  LIG11       0.2332
     37 C           0.1572    2.7979    0.9951 C.ar    1  LIG11      -0.0016
     38 C          -0.8569    3.4364    0.2413 C.ar    1  LIG11       0.0037
     39 C          -0.0012    2.6813    2.3963 C.ar    1  LIG11      -0.0547
     40 C           1.7694   -5.6856    0.2388 C.3     1  LIG11       0.0788
     41 C          -1.9893    3.9306    0.9295 C.ar    1  LIG11      -0.0525
     42 C          -1.1160    3.2063    3.0509 C.ar    1  LIG11      -0.0614
     43 C           6.2480    1.9970   -0.7059 C.3     1  LIG11       0.0788
     44 C          -2.1151    3.8305    2.3156 C.ar    1  LIG11      -0.0611
     45 C          -0.7930    3.6653   -1.2613 C.2     1  LIG11       0.0720
@<TRIPOS>BOND
     1     1    35    1
     2     1    21    1
     3     2    36    1
     4     2    30    1
     5     3    32    1
     6     3    36    1
     7     4    27    1
     8     4    40    1
     9     5    31    1
    10     5    43    1
    11     6    34   ar
    12     7    34   ar
    13     8    45   ar
    14     9    45   ar
    15    10    11   ar
    16    10    12   ar
    17    10    13    1
    18    11    18   ar
    19    12    15   ar
    20    13    14    1
    21    14    17    1
    22    15    18   ar
    23    15    19    1
    24    16    24   ar
    25    16    21   ar
    26    16    12    1
    27    17    25    1
    28    19    22    2
    29    20    22    1
    30    20    23    1
    31    21    26   ar
    32    22    34    1
    33    23    28   ar
    34    23    27   ar
    35    24    29   ar
    36    26    31   ar
    37    27    33   ar
    38    28    30   ar
    39    29    31   ar
    40    30    32   ar
    41    32    33   ar
    42    35    37    1
    43    37    39   ar
    44    37    38   ar
    45    38    41   ar
    46    38    45    1
    47    39    42   ar
    48    41    44   ar
    49    42    44   ar
