@<TRIPOS>MOLECULE
BOSENTAN_50CONFORMERS.pdb
 39 42 0 0 0
SMALL
GASTEIGER

@<TRIPOS>ATOM
      1  S1        -1.5920    0.7080    2.2740 S.O2    1  LGD1        0.0943
      2  O2        -1.3490    1.8560    1.3290 O.2     1  LGD1       -0.1483
      3  O3        -2.7870    0.6970    3.1730 O.2     1  LGD1       -0.1483
      4  O4        -2.3980   -2.8600   -0.2400 O.3     1  LGD1       -0.4427
      5  O5        -0.5350   -3.8030   -2.0080 O.3     1  LGD1       -0.4552
      6  O6        -0.5610   -4.4470    1.2970 O.3     1  LGD1       -0.4684
      7  O7        -0.5480   -6.8990   -2.1550 O.3     1  LGD1       -0.2162
      8  N8        -1.8000   -0.6880    1.3690 N.pl3   1  LGD1       -0.0737
      9  N9         0.3860   -0.5770    0.4390 N.ar    1  LGD1       -0.2027
     10  N10        0.9790   -2.0590   -1.4670 N.ar    1  LGD1       -0.1866
     11  N11        2.5480    0.7850   -1.4200 N.ar    1  LGD1       -0.2224
     12  N12        3.4430   -0.8800    0.2360 N.ar    1  LGD1       -0.2224
     13  C13        3.1410   -0.0020    5.9550 C.3     1  LGD1        0.0189
     14  C14        1.9750    0.1560    4.9860 C.ar    1  LGD1       -0.0227
     15  C15        4.4860    0.6590    5.5210 C.3     1  LGD1        0.0044
     16  C16        3.5350   -1.4280    6.3530 C.3     1  LGD1        0.0044
     17  C17        3.0070    0.7020    7.3280 C.3     1  LGD1        0.0044
     18  C18        0.7230   -0.3990    5.3040 C.ar    1  LGD1       -0.0029
     19  C19        2.0400    1.0120    3.8350 C.ar    1  LGD1       -0.0029
     20  C20       -0.1660    0.4230    3.2060 C.ar    1  LGD1        0.1271
     21  C21       -0.3230   -0.2830    4.3990 C.ar    1  LGD1        0.0199
     22  C22        0.9900    1.1550    2.9170 C.ar    1  LGD1        0.0199
     23  C23       -0.8410   -1.1750    0.5410 C.ar    1  LGD1        0.2125
     24  C24       -1.1550   -2.2170   -0.2970 C.ar    1  LGD1        0.2327
     25  C25       -0.2340   -2.6720   -1.2400 C.ar    1  LGD1        0.2651
     26  C26        1.1820   -1.0860   -0.5290 C.ar    1  LGD1        0.2028
     27  C27       -2.6560   -4.1830    0.0900 C.ar    1  LGD1        0.1793
     28  C28        2.4890   -0.2940   -0.5660 C.ar    1  LGD1        0.1990
     29  C29        0.6870   -4.5840   -2.2510 C.3     1  LGD1        0.2426
     30  C30       -1.7460   -5.0330    0.7980 C.ar    1  LGD1        0.1730
     31  C31       -3.8700   -4.7310   -0.3700 C.ar    1  LGD1        0.0406
     32  C32       -2.0730   -6.3770    1.0220 C.ar    1  LGD1        0.0401
     33  C33        0.2220   -5.9440   -2.9520 C.3     1  LGD1        0.2292
     34  C34       -4.1550   -6.0760   -0.0640 C.ar    1  LGD1        0.0033
     35  C35       -3.3260   -6.9020    0.6510 C.ar    1  LGD1        0.0033
     36  C36        3.7540    1.4140   -1.4170 C.ar    1  LGD1        0.1023
     37  C37        4.6230   -0.2490    0.2180 C.ar    1  LGD1        0.1023
     38  C38        4.8140    0.8600   -0.6520 C.ar    1  LGD1        0.0414
     39  C39       -0.2510   -4.7460    2.6710 C.3     1  LGD1        0.2526
@<TRIPOS>BOND
     1    33     7    1
     2    33    29    1
     3     5    29    1
     4     5    25    1
     5    10    25   ar
     6    10    26   ar
     7    36    11   ar
     8    36    38   ar
     9    11    28   ar
    10    25    24   ar
    11    38    37   ar
    12    34    31   ar
    13    34    35   ar
    14    28    26    1
    15    28    12   ar
    16    26     9   ar
    17    31    27   ar
    18    37    12   ar
    19    24     4    1
    20    24    23   ar
    21     4    27    1
    22    27    30   ar
    23    35    32   ar
    24    15    13    1
    25     9    23   ar
    26    23     8    1
    27    30    32   ar
    28    30     6    1
    29     6    39    1
    30     8     1    1
    31    18    14   ar
    32    18    21   ar
    33    13    14    1
    34    13    17    1
    35    13    16    1
    36    14    19   ar
    37    21    20   ar
    38    20     1    1
    39    20    22   ar
    40    19    22   ar
    41     1     2    2
    42     1     3    2
@<TRIPOS>MOLECULE
01012527H
 38 40 0 0 0
SMALL
GASTEIGER

@<TRIPOS>ATOM
      1 C           0.3389   -6.6781    0.1836 C.3     1  LIG11       0.0531
      2 C           1.2063   -5.4591   -0.1007 C.3     1  LIG11      -0.0111
      3 C          -0.6008   -6.3481    1.3350 C.3     1  LIG11       0.0375
      4 C           1.4397   -7.6484    0.5981 C.2     1  LIG11       0.0509
      5 N           0.9772   -4.5252    1.1098 N.3     1  LIG11       0.2448
      6 C           0.8546   -4.6392   -1.3636 C.3     1  LIG11      -0.0039
      7 C          -2.0053   -5.9995    0.8476 C.ar    1  LIG11      -0.0313
      8 C           0.1315   -5.2713    2.1287 C.3     1  LIG11      -0.0234
      9 O           1.8538   -7.5157    1.7827 O.co2   1  LIG11      -0.5493
     10 O           1.8807   -8.3636   -0.3356 O.co2   1  LIG11      -0.5493
     11 C           2.2936   -4.0307    1.7046 C.3     1  LIG11       0.0465
     12 C           1.3696   -5.1574   -2.7457 C.3     1  LIG11      -0.0298
     13 C          -2.9191   -7.0604    0.6937 C.ar    1  LIG11      -0.0122
     14 C          -2.4348   -4.6836    0.5448 C.ar    1  LIG11      -0.0124
     15 C           2.0743   -2.8986    2.7211 C.2     1  LIG11       0.2608
     16 C           1.1940   -4.0317   -3.8194 C.3     1  LIG11      -0.0479
     17 C           0.5298   -6.3605   -3.2216 C.3     1  LIG11      -0.0596
     18 C           2.8446   -5.5945   -2.6847 C.3     1  LIG11      -0.0596
     19 C          -4.2019   -6.7769    0.2759 C.ar    1  LIG11       0.1702
     20 C          -3.7448   -4.4197    0.1137 C.ar    1  LIG11       0.1656
     21 N           3.1829   -2.3944    3.3991 N.am    1  LIG11      -0.2971
     22 O           0.9296   -2.4660    2.8961 O.2     1  LIG11      -0.2697
     23 C           2.1277   -2.8199   -3.6873 C.3     1  LIG11      -0.0554
     24 C          -4.6051   -5.4959   -0.0095 C.ar    1  LIG11       0.2075
     25 O          -5.1966   -7.6898    0.1104 O.3     1  LIG11      -0.4525
     26 O          -4.2513   -3.1935   -0.2066 O.3     1  LIG11      -0.4913
     27 C           4.5596   -2.5694    2.9135 C.3     1  LIG11       0.0148
     28 C           2.9546   -1.3708    4.4314 C.3     1  LIG11       0.0148
     29 C           1.8713   -1.8015   -4.7892 C.3     1  LIG11      -0.0653
     30 O          -5.9115   -5.4468   -0.3959 O.3     1  LIG11      -0.4489
     31 C          -6.2856   -6.8329   -0.2883 C.3     1  LIG11       0.2334
     32 C          -3.4799   -2.0559    0.1486 C.3     1  LIG11       0.0790
     33 C           5.2648   -3.7864    3.5137 C.3     1  LIG11      -0.0374
     34 C           3.7889   -1.5784    5.6986 C.3     1  LIG11      -0.0374
     35 C           6.6728   -3.9894    2.9451 C.3     1  LIG11      -0.0545
     36 C           3.4312   -0.6075    6.8268 C.3     1  LIG11      -0.0545
     37 C           7.6513   -2.8992    3.3553 C.3     1  LIG11      -0.0652
     38 C           3.7082    0.8477    6.4827 C.3     1  LIG11      -0.0652
@<TRIPOS>BOND
     1     1     2    1
     2     1     3    1
     3     1     4    1
     4     2     5    1
     5     2     6    1
     6     3     8    1
     7     3     7    1
     8     4    10   ar
     9     4     9   ar
    10     5     8    1
    11     5    11    1
    12     6    12    1
    13     7    14   ar
    14     7    13   ar
    15    11    15    1
    16    12    18    1
    17    12    17    1
    18    12    16    1
    19    13    19   ar
    20    14    20   ar
    21    15    22    2
    22    15    21   am
    23    16    23    1
    24    19    25    1
    25    19    24   ar
    26    20    24   ar
    27    20    26    1
    28    21    28    1
    29    21    27    1
    30    23    29    1
    31    24    30    1
    32    25    31    1
    33    26    32    1
    34    27    33    1
    35    28    34    1
    36    30    31    1
    37    33    35    1
    38    34    36    1
    39    35    37    1
    40    36    38    1
