@<TRIPOS>MOLECULE
BOSENTAN_50CONFORMERS.pdb
 39 42 0 0 0
SMALL
GASTEIGER

@<TRIPOS>ATOM
      1  S1        -1.7320    0.1810    2.7740 S.O2    1  LGD1        0.0943
      2  O2        -0.6960    1.2920    2.6760 O.2     1  LGD1       -0.1483
      3  O3        -3.1660    0.4740    3.1050 O.2     1  LGD1       -0.1483
      4  O4        -2.3360   -2.8310   -0.1550 O.3     1  LGD1       -0.4427
      5  O5        -0.5580   -3.7380   -2.0900 O.3     1  LGD1       -0.4552
      6  O6        -0.9690   -4.7980    1.3410 O.3     1  LGD1       -0.4684
      7  O7        -1.3050   -6.4250   -3.2420 O.3     1  LGD1       -0.2162
      8  N8        -1.8450   -0.7360    1.3820 N.pl3   1  LGD1       -0.0737
      9  N9         0.3600   -0.5250    0.3520 N.ar    1  LGD1       -0.2027
     10  N10        0.9940   -2.1270   -1.4120 N.ar    1  LGD1       -0.1866
     11  N11        3.2240   -0.0770    0.4700 N.ar    1  LGD1       -0.2224
     12  N12        2.9320   -0.2110   -1.9940 N.ar    1  LGD1       -0.2224
     13  C13        0.3330   -3.7610    6.9160 C.3     1  LGD1        0.0189
     14  C14       -0.1710   -2.7530    5.8960 C.ar    1  LGD1       -0.0227
     15  C15        1.9150   -3.6670    7.0730 C.3     1  LGD1        0.0044
     16  C16       -0.0880   -5.2180    6.4090 C.3     1  LGD1        0.0044
     17  C17       -0.1450   -3.4970    8.3540 C.3     1  LGD1        0.0044
     18  C18       -1.5460   -2.5790    5.6760 C.ar    1  LGD1       -0.0029
     19  C19        0.7010   -2.0420    5.0230 C.ar    1  LGD1       -0.0029
     20  C20       -1.0980   -0.9700    3.9420 C.ar    1  LGD1        0.1271
     21  C21       -2.0580   -1.7110    4.6910 C.ar    1  LGD1        0.0199
     22  C22        0.2280   -1.1340    4.0490 C.ar    1  LGD1        0.0199
     23  C23       -0.8400   -1.1220    0.5410 C.ar    1  LGD1        0.2125
     24  C24       -1.1130   -2.2400   -0.2200 C.ar    1  LGD1        0.2327
     25  C25       -0.2440   -2.6980   -1.2050 C.ar    1  LGD1        0.2651
     26  C26        1.2290   -1.0910   -0.5400 C.ar    1  LGD1        0.2028
     27  C27       -2.8490   -3.3340    1.0040 C.ar    1  LGD1        0.1793
     28  C28        2.5950   -0.3870   -0.6740 C.ar    1  LGD1        0.1990
     29  C29        0.1070   -5.0070   -1.8720 C.3     1  LGD1        0.2426
     30  C30       -2.1780   -4.2910    1.7990 C.ar    1  LGD1        0.1730
     31  C31       -4.1470   -2.9820    1.4140 C.ar    1  LGD1        0.0406
     32  C32       -2.7210   -4.7500    3.0210 C.ar    1  LGD1        0.0401
     33  C33        0.0330   -5.8910   -3.1100 C.3     1  LGD1        0.2292
     34  C34       -4.7120   -3.4180    2.6420 C.ar    1  LGD1        0.0033
     35  C35       -3.9630   -4.2770    3.4700 C.ar    1  LGD1        0.0033
     36  C36        4.4920    0.4060    0.1910 C.ar    1  LGD1        0.1023
     37  C37        4.1020    0.5310   -2.1760 C.ar    1  LGD1        0.1023
     38  C38        4.8620    0.8340   -1.1080 C.ar    1  LGD1        0.0414
     39  C39        0.0660   -4.8260    2.3080 C.3     1  LGD1        0.2526
@<TRIPOS>BOND
     1    33     7    1
     2    33    29    1
     3     5    29    1
     4     5    25    1
     5    10    25   ar
     6    10    26   ar
     7    36    11   ar
     8    36    38   ar
     9    11    28   ar
    10    25    24   ar
    11    38    37   ar
    12    34    31   ar
    13    34    35   ar
    14    28    26    1
    15    28    12   ar
    16    26     9   ar
    17    31    27   ar
    18    37    12   ar
    19    24     4    1
    20    24    23   ar
    21     4    27    1
    22    27    30   ar
    23    35    32   ar
    24    15    13    1
    25     9    23   ar
    26    23     8    1
    27    30    32   ar
    28    30     6    1
    29     6    39    1
    30     8     1    1
    31    18    14   ar
    32    18    21   ar
    33    13    14    1
    34    13    17    1
    35    13    16    1
    36    14    19   ar
    37    21    20   ar
    38    20     1    1
    39    20    22   ar
    40    19    22   ar
    41     1     2    2
    42     1     3    2
@<TRIPOS>MOLECULE
2-[[2-[2-butyl-4-[(Z)-2-carboxy-3-(6-methoxy-1,3-benzodioxol-5-yl)prop-1-enyl]pyrazol-3-yl]-5-methoxyphenoxy]methyl]benzoic acid
 45 49 0 0 0
SMALL
GASTEIGER

@<TRIPOS>ATOM
      1 O          -1.0994   -5.0292    2.1853 O.3     1  LIG11      -0.4866
      2 O           3.1504   -1.2314   -5.1435 O.3     1  LIG11      -0.4526
      3 O           4.9696   -2.6940   -5.7568 O.3     1  LIG11      -0.4525
      4 O           2.5517   -6.5830   -4.2119 O.3     1  LIG11      -0.4947
      5 O          -5.2633   -4.9714    4.2611 O.3     1  LIG11      -0.4950
      6 O           0.8040   -7.5123   -1.6695 O.co2   1  LIG11      -0.5449
      7 O           2.4877   -6.2323   -0.7942 O.co2   1  LIG11      -0.5449
      8 O          -0.3154   -5.8533    5.4472 O.co2   1  LIG11      -0.5446
      9 O          -1.8473   -5.0009    6.8652 O.co2   1  LIG11      -0.5446
     10 N          -2.4636   -2.0746   -0.8806 N.ar    1  LIG11      -0.2630
     11 N          -1.4962   -1.3538   -1.4877 N.ar    1  LIG11      -0.1785
     12 C          -1.9487   -2.9946    0.0438 C.ar    1  LIG11       0.0795
     13 C          -3.8215   -1.9466   -1.3876 C.3     1  LIG11       0.0422
     14 C          -3.9873   -2.2890   -2.8741 C.3     1  LIG11      -0.0336
     15 C          -0.7873   -3.3580   -0.6599 C.ar    1  LIG11       0.0207
     16 C          -2.7069   -3.4447    1.2564 C.ar    1  LIG11       0.0425
     17 C          -3.8624   -3.7917   -3.1412 C.3     1  LIG11      -0.0542
     18 C          -0.4665   -2.1947   -1.3986 C.ar    1  LIG11       0.0571
     19 C           0.0256   -4.5333   -0.6403 C.2     1  LIG11      -0.0459
     20 C           0.4396   -4.9124   -3.1859 C.3     1  LIG11       0.0029
     21 C          -2.3283   -4.4486    2.1577 C.ar    1  LIG11       0.1336
     22 C           0.5875   -5.1577   -1.7042 C.2     1  LIG11      -0.0200
     23 C           1.6752   -4.3794   -3.9058 C.ar    1  LIG11       0.0023
     24 C          -3.8959   -2.7690    1.6174 C.ar    1  LIG11      -0.0456
     25 C          -4.1666   -4.1275   -4.5926 C.3     1  LIG11      -0.0652
     26 C          -3.2256   -4.9515    3.1223 C.ar    1  LIG11       0.0224
     27 C           2.7370   -5.2287   -4.3130 C.ar    1  LIG11       0.1273
     28 C           1.7724   -3.0035   -4.1893 C.ar    1  LIG11      -0.0092
     29 C          -4.7770   -3.2278    2.6096 C.ar    1  LIG11      -0.0191
     30 C           2.9142   -2.5270   -4.7996 C.ar    1  LIG11       0.1667
     31 C          -4.4678   -4.3665    3.3318 C.ar    1  LIG11       0.1236
     32 C           3.9478   -3.3589   -5.1510 C.ar    1  LIG11       0.1697
     33 C           3.8858   -4.7156   -4.9345 C.ar    1  LIG11       0.0258
     34 C           1.3657   -6.4272   -1.3422 C.2     1  LIG11       0.0680
     35 C          -0.0868   -4.3377    2.9517 C.3     1  LIG11       0.1153
     36 C           4.4651   -1.3446   -5.7202 C.3     1  LIG11       0.2332
     37 C          -0.4241   -3.2540    3.9763 C.ar    1  LIG11      -0.0016
     38 C          -0.8294   -3.5145    5.3080 C.ar    1  LIG11       0.0037
     39 C          -0.2628   -1.9079    3.5687 C.ar    1  LIG11      -0.0547
     40 C           3.6598   -7.2748   -3.6378 C.3     1  LIG11       0.0788
     41 C          -1.0475   -2.4153    6.1707 C.ar    1  LIG11      -0.0525
     42 C          -0.4674   -0.8436    4.4481 C.ar    1  LIG11      -0.0614
     43 C          -6.4359   -4.2780    4.6546 C.3     1  LIG11       0.0788
     44 C          -0.8595   -1.0980    5.7548 C.ar    1  LIG11      -0.0611
     45 C          -1.0218   -4.9022    5.8982 C.2     1  LIG11       0.0720
@<TRIPOS>BOND
     1     1    35    1
     2     1    21    1
     3     2    36    1
     4     2    30    1
     5     3    32    1
     6     3    36    1
     7     4    27    1
     8     4    40    1
     9     5    31    1
    10     5    43    1
    11     6    34   ar
    12     7    34   ar
    13     8    45   ar
    14     9    45   ar
    15    10    11   ar
    16    10    12   ar
    17    10    13    1
    18    11    18   ar
    19    12    15   ar
    20    13    14    1
    21    14    17    1
    22    15    18   ar
    23    15    19    1
    24    16    24   ar
    25    16    21   ar
    26    16    12    1
    27    17    25    1
    28    19    22    2
    29    20    22    1
    30    20    23    1
    31    21    26   ar
    32    22    34    1
    33    23    28   ar
    34    23    27   ar
    35    24    29   ar
    36    26    31   ar
    37    27    33   ar
    38    28    30   ar
    39    29    31   ar
    40    30    32   ar
    41    32    33   ar
    42    35    37    1
    43    37    39   ar
    44    37    38   ar
    45    38    41   ar
    46    38    45    1
    47    39    42   ar
    48    41    44   ar
    49    42    44   ar
