@<TRIPOS>MOLECULE
BOSENTAN_50CONFORMERS.pdb
 39 42 0 0 0
SMALL
GASTEIGER

@<TRIPOS>ATOM
      1  S1        -2.2170   -1.4360    2.9500 S.O2    1  LGD1        0.0943
      2  O2        -0.9660   -2.2360    3.2690 O.2     1  LGD1       -0.1483
      3  O3        -2.8010   -0.3410    3.7450 O.2     1  LGD1       -0.1483
      4  O4        -2.4460   -2.7320   -0.2070 O.3     1  LGD1       -0.4427
      5  O5        -0.5720   -3.7820   -1.9670 O.3     1  LGD1       -0.4552
      6  O6        -0.7100   -4.5350    1.3670 O.3     1  LGD1       -0.4684
      7  O7        -0.4040   -6.1780   -3.3780 O.3     1  LGD1       -0.2162
      8  N8        -1.8490   -0.6770    1.4180 N.pl3   1  LGD1       -0.0737
      9  N9         0.3700   -0.6190    0.4290 N.ar    1  LGD1       -0.2027
     10  N10        1.0340   -2.0680   -1.4430 N.ar    1  LGD1       -0.1866
     11  N11        2.4720    0.5280   -1.9330 N.ar    1  LGD1       -0.2224
     12  N12        3.3730   -0.3060    0.1550 N.ar    1  LGD1       -0.2224
     13  C13       -7.1830   -4.8760    2.4940 C.3     1  LGD1        0.0189
     14  C14       -5.9610   -4.0200    2.6740 C.ar    1  LGD1       -0.0227
     15  C15       -6.9930   -6.3660    2.8290 C.3     1  LGD1        0.0044
     16  C16       -7.8360   -4.8520    1.1240 C.3     1  LGD1        0.0044
     17  C17       -8.3100   -4.3400    3.4540 C.3     1  LGD1        0.0044
     18  C18       -5.9450   -2.7550    2.0980 C.ar    1  LGD1       -0.0029
     19  C19       -4.7930   -4.5340    3.1990 C.ar    1  LGD1       -0.0029
     20  C20       -3.6420   -2.4430    2.6730 C.ar    1  LGD1        0.1271
     21  C21       -4.7990   -1.9800    2.0110 C.ar    1  LGD1        0.0199
     22  C22       -3.6910   -3.7340    3.2260 C.ar    1  LGD1        0.0199
     23  C23       -0.8410   -1.1820    0.5490 C.ar    1  LGD1        0.2125
     24  C24       -1.1430   -2.1960   -0.3250 C.ar    1  LGD1        0.2327
     25  C25       -0.2090   -2.6940   -1.2770 C.ar    1  LGD1        0.2651
     26  C26        1.1910   -1.0590   -0.5760 C.ar    1  LGD1        0.2028
     27  C27       -2.7660   -4.0460    0.0750 C.ar    1  LGD1        0.1793
     28  C28        2.4090   -0.1840   -0.8270 C.ar    1  LGD1        0.1990
     29  C29       -0.0890   -3.7740   -3.3440 C.3     1  LGD1        0.2426
     30  C30       -1.8930   -4.9720    0.7730 C.ar    1  LGD1        0.1730
     31  C31       -3.9820   -4.5050   -0.4520 C.ar    1  LGD1        0.0406
     32  C32       -2.3610   -6.2780    1.0560 C.ar    1  LGD1        0.0401
     33  C33       -0.6640   -4.9630   -4.0230 C.3     1  LGD1        0.2292
     34  C34       -4.3750   -5.8520   -0.2430 C.ar    1  LGD1        0.0033
     35  C35       -3.5720   -6.7140    0.5200 C.ar    1  LGD1        0.0033
     36  C36        3.5190    1.3820   -2.0300 C.ar    1  LGD1        0.1023
     37  C37        4.4510    0.5710    0.0700 C.ar    1  LGD1        0.1023
     38  C38        4.4350    1.4540   -0.9910 C.ar    1  LGD1        0.0414
     39  C39        0.3960   -5.3290    0.8350 C.3     1  LGD1        0.2526
@<TRIPOS>BOND
     1    33     7    1
     2    33    29    1
     3     5    29    1
     4     5    25    1
     5    10    25   ar
     6    10    26   ar
     7    36    11   ar
     8    36    38   ar
     9    11    28   ar
    10    25    24   ar
    11    38    37   ar
    12    34    31   ar
    13    34    35   ar
    14    28    26    1
    15    28    12   ar
    16    26     9   ar
    17    31    27   ar
    18    37    12   ar
    19    24     4    1
    20    24    23   ar
    21     4    27    1
    22    27    30   ar
    23    35    32   ar
    24    15    13    1
    25     9    23   ar
    26    23     8    1
    27    30    32   ar
    28    30     6    1
    29     6    39    1
    30     8     1    1
    31    18    14   ar
    32    18    21   ar
    33    13    14    1
    34    13    17    1
    35    13    16    1
    36    14    19   ar
    37    21    20   ar
    38    20     1    1
    39    20    22   ar
    40    19    22   ar
    41     1     2    2
    42     1     3    2
@<TRIPOS>MOLECULE
16219006
 44 47 0 0 0
SMALL
GASTEIGER

@<TRIPOS>ATOM
      1 O          -9.2540   -4.4495    9.5042 O.2     1  PRO11      -0.2738
      2 O         -10.2220   -0.8442    7.3980 O.2     5  ASP55      -0.2735
      3 O         -10.7706   -3.1639    5.2858 O.2     2  VAL22      -0.2738
      4 O          -5.3843   -0.5042    6.7074 O.2     4  TRP44      -0.2738
      5 O          -6.7058   -4.4633    5.7175 O.2     3  LEU33      -0.2738
      6 OD1        -9.7136    3.5754    7.2591 O.co2   5  ASP55      -0.5497
      7 OD2        -8.9500    2.1381    8.8554 O.co2   5  ASP55      -0.5497
      8 N          -8.6844   -1.2661    9.0066 N.am    1  PRO11      -0.2884
      9 N         -10.8009   -3.4207    8.1619 N.am    2  VAL22      -0.3022
     10 N          -7.5816   -0.5329    6.0422 N.am    5  ASP55      -0.3021
     11 N          -9.4352   -5.0108    5.4146 N.am    3  LEU33      -0.3025
     12 N          -7.1066   -2.6602    4.3564 N.am    4  TRP44      -0.3022
     13 NE1        -4.9038   -2.3094    0.2448 N.ar    4  TRP44      -0.3604
     14 CA         -9.6215   -2.0449    9.8138 C.3     1  PRO11       0.1023
     15 CB         -8.9507   -2.1422   11.1863 C.3     1  PRO11      -0.0243
     16 CG         -7.4659   -2.0013   10.8735 C.3     1  PRO11      -0.0350
     17 CD         -7.4550   -0.9987    9.7321 C.3     1  PRO11       0.0156
     18 C          -9.8585   -3.4308    9.1737 C.2     1  PRO11       0.2342
     19 C          -9.1158   -0.5783    7.8892 C.2     5  ASP55       0.2369
     20 CA        -10.9842   -4.5637    7.2758 C.3     2  VAL22       0.1017
     21 CA         -8.0948    0.3132    7.1379 C.3     5  ASP55       0.1047
     22 CB        -12.4582   -5.0219    7.2168 C.3     2  VAL22      -0.0197
     23 CA         -8.6402   -4.5843    4.2652 C.3     3  LEU33       0.0996
     24 C         -10.4107   -4.1642    5.9031 C.2     2  VAL22       0.2342
     25 CB         -8.7614    1.5499    6.5604 C.3     5  ASP55       0.0138
     26 CA         -5.9371   -1.9065    4.8202 C.3     4  TRP44       0.1034
     27 CB         -8.2654   -5.7965    3.4070 C.3     3  LEU33      -0.0236
     28 CG         -7.4825   -5.4581    2.1243 C.3     3  LEU33      -0.0446
     29 C          -6.2739   -0.9568    5.9879 C.2     4  TRP44       0.2343
     30 CB         -5.2916   -1.0789    3.6980 C.3     4  TRP44       0.0013
     31 C          -7.3889   -3.9104    4.8561 C.2     3  LEU33       0.2340
     32 CG1       -13.4327   -3.9586    6.7027 C.3     2  VAL22      -0.0605
     33 CG2       -12.6059   -6.3057    6.3929 C.3     2  VAL22      -0.0605
     34 CG         -4.9972   -1.8270    2.4238 C.ar    4  TRP44      -0.0201
     35 CG         -9.1850    2.5042    7.6716 C.2     5  ASP55       0.0440
     36 CD1        -8.2474   -4.5232    1.1879 C.3     3  LEU33      -0.0626
     37 CD2        -7.1158   -6.7459    1.3839 C.3     3  LEU33      -0.0626
     38 CD2        -4.3437   -3.0958    2.2548 C.ar    4  TRP44       0.0029
     39 CD1        -5.3146   -1.3765    1.1548 C.ar    4  TRP44       0.0060
     40 CE2        -4.3270   -3.3784    0.8866 C.ar    4  TRP44       0.0467
     41 CE3        -3.7828   -4.0498    3.1307 C.ar    4  TRP44      -0.0523
     42 CZ2        -3.7998   -4.5639    0.3579 C.ar    4  TRP44      -0.0378
     43 CZ3        -3.2642   -5.2469    2.6213 C.ar    4  TRP44      -0.0611
     44 CH2        -3.2761   -5.4994    1.2534 C.ar    4  TRP44      -0.0598
@<TRIPOS>BOND
     1     1    18    2
     2     2    19    2
     3     3    24    2
     4     4    29    2
     5     5    31    2
     6     6    35   ar
     7     7    35   ar
     8     8    14    1
     9     8    17    1
    10     8    19   am
    11     9    18   am
    12     9    20    1
    13    10    21    1
    14    10    29   am
    15    11    23    1
    16    11    24   am
    17    12    26    1
    18    12    31   am
    19    13    39   ar
    20    13    40   ar
    21    14    15    1
    22    14    18    1
    23    15    16    1
    24    16    17    1
    25    19    21    1
    26    20    22    1
    27    20    24    1
    28    21    25    1
    29    22    32    1
    30    22    33    1
    31    23    27    1
    32    23    31    1
    33    25    35    1
    34    26    29    1
    35    26    30    1
    36    27    28    1
    37    28    36    1
    38    28    37    1
    39    30    34    1
    40    34    38   ar
    41    34    39   ar
    42    38    40   ar
    43    38    41   ar
    44    40    42   ar
    45    41    43   ar
    46    42    44   ar
    47    43    44   ar
