@<TRIPOS>MOLECULE
BOSENTAN_50CONFORMERS.pdb
 39 42 0 0 0
SMALL
GASTEIGER

@<TRIPOS>ATOM
      1  S1        -1.8260    0.8680    2.1150 S.O2    1  LGD1        0.0943
      2  O2        -3.2310    1.0510    2.6420 O.2     1  LGD1       -0.1483
      3  O3        -0.7360    0.8420    3.1650 O.2     1  LGD1       -0.1483
      4  O4        -2.4030   -2.7480   -0.1730 O.3     1  LGD1       -0.4427
      5  O5        -0.5250   -3.7950   -2.0950 O.3     1  LGD1       -0.4552
      6  O6        -2.8550   -0.2480   -1.8440 O.3     1  LGD1       -0.4684
      7  O7        -1.9730   -4.8030   -4.4000 O.3     1  LGD1       -0.2162
      8  N8        -1.8030   -0.6630    1.3420 N.pl3   1  LGD1       -0.0737
      9  N9         0.3910   -0.5170    0.4490 N.ar    1  LGD1       -0.2027
     10  N10        0.9160   -2.0940   -1.3960 N.ar    1  LGD1       -0.1866
     11  N11        2.6710    0.8150   -0.9050 N.ar    1  LGD1       -0.2224
     12  N12        3.5280   -1.4300   -0.5030 N.ar    1  LGD1       -0.2224
     13  C13       -0.5230    4.4800   -2.6490 C.3     1  LGD1        0.0189
     14  C14       -0.8270    3.6580   -1.3880 C.ar    1  LGD1       -0.0227
     15  C15       -1.6210    5.5800   -2.8100 C.3     1  LGD1        0.0044
     16  C16       -0.4680    3.6970   -4.0130 C.3     1  LGD1        0.0044
     17  C17        0.8300    5.1600   -2.6730 C.3     1  LGD1        0.0044
     18  C18        0.1540    3.3630   -0.3720 C.ar    1  LGD1       -0.0029
     19  C19       -2.1270    3.0610   -1.2730 C.ar    1  LGD1       -0.0029
     20  C20       -1.4510    1.9720    0.8310 C.ar    1  LGD1        0.1271
     21  C21       -0.1290    2.4730    0.7040 C.ar    1  LGD1        0.0199
     22  C22       -2.4280    2.2780   -0.1370 C.ar    1  LGD1        0.0199
     23  C23       -0.8140   -1.1840    0.5480 C.ar    1  LGD1        0.2125
     24  C24       -1.1190   -2.2490   -0.2350 C.ar    1  LGD1        0.2327
     25  C25       -0.2610   -2.7270   -1.2750 C.ar    1  LGD1        0.2651
     26  C26        1.1980   -1.0480   -0.5300 C.ar    1  LGD1        0.2028
     27  C27       -3.3080   -2.6450   -1.2120 C.ar    1  LGD1        0.1793
     28  C28        2.5710   -0.4720   -0.5450 C.ar    1  LGD1        0.1990
     29  C29       -0.0310   -3.6890   -3.4570 C.3     1  LGD1        0.2426
     30  C30       -3.5470   -1.4580   -2.0260 C.ar    1  LGD1        0.1730
     31  C31       -4.0820   -3.7780   -1.4710 C.ar    1  LGD1        0.0406
     32  C32       -4.5460   -1.5120   -2.9680 C.ar    1  LGD1        0.0401
     33  C33       -0.5230   -4.8470   -4.3420 C.3     1  LGD1        0.2292
     34  C34       -5.0600   -3.7560   -2.4690 C.ar    1  LGD1        0.0033
     35  C35       -5.2410   -2.6820   -3.2890 C.ar    1  LGD1        0.0033
     36  C36        3.9260    1.3540   -0.9780 C.ar    1  LGD1        0.1023
     37  C37        4.8260   -0.9910   -0.5450 C.ar    1  LGD1        0.1023
     38  C38        4.9700    0.4280   -0.7720 C.ar    1  LGD1        0.0414
     39  C39       -1.9900   -0.1040   -3.0090 C.3     1  LGD1        0.2526
@<TRIPOS>BOND
     1    33     7    1
     2    33    29    1
     3     5    29    1
     4     5    25    1
     5    10    25   ar
     6    10    26   ar
     7    36    11   ar
     8    36    38   ar
     9    11    28   ar
    10    25    24   ar
    11    38    37   ar
    12    34    31   ar
    13    34    35   ar
    14    28    26    1
    15    28    12   ar
    16    26     9   ar
    17    31    27   ar
    18    37    12   ar
    19    24     4    1
    20    24    23   ar
    21     4    27    1
    22    27    30   ar
    23    35    32   ar
    24    15    13    1
    25     9    23   ar
    26    23     8    1
    27    30    32   ar
    28    30     6    1
    29     6    39    1
    30     8     1    1
    31    18    14   ar
    32    18    21   ar
    33    13    14    1
    34    13    17    1
    35    13    16    1
    36    14    19   ar
    37    21    20   ar
    38    20     1    1
    39    20    22   ar
    40    19    22   ar
    41     1     2    2
    42     1     3    2
@<TRIPOS>MOLECULE
159594
 37 40 0 0 0
SMALL
GASTEIGER

@<TRIPOS>ATOM
      1 O          -5.0366    2.3708   -4.1561 O.co2   1  LIG11      -0.5493
      2 O          -6.2792    1.2575   -2.5936 O.co2   1  LIG11      -0.5493
      3 O          -2.3414    2.9828    2.2077 O.3     1  LIG11      -0.4526
      4 O           0.0140   -0.1808   -6.1656 O.2     1  LIG11      -0.2697
      5 O           0.0079    3.5059    2.0703 O.3     1  LIG11      -0.4526
      6 O          -5.1869   -5.2075   -1.4835 O.3     1  LIG11      -0.4951
      7 N          -2.2822   -0.0176   -3.7434 N.3     1  LIG11       0.2481
      8 N           0.3978   -1.6694   -4.4559 N.am    1  LIG11      -0.2971
      9 C          -3.9484    1.1479   -2.4851 C.3     1  LIG11       0.0574
     10 C          -2.7531    2.1022   -2.6858 C.3     1  LIG11       0.0378
     11 C          -3.7729   -0.0421   -3.4253 C.3     1  LIG11       0.0143
     12 C          -2.0029    1.4639   -3.8697 C.3     1  LIG11      -0.0230
     13 C          -1.9350    2.3803   -1.4178 C.ar    1  LIG11      -0.0347
     14 C          -4.1844   -1.3938   -2.8730 C.ar    1  LIG11       0.0011
     15 C          -1.9359   -0.8294   -4.9772 C.3     1  LIG11       0.0468
     16 C          -5.2202    1.6769   -3.1192 C.2     1  LIG11       0.0513
     17 C          -2.5823    2.4829   -0.1675 C.ar    1  LIG11      -0.0125
     18 C          -0.4310   -0.8874   -5.2635 C.2     1  LIG11       0.2608
     19 C          -0.5617    2.7318   -1.4761 C.ar    1  LIG11      -0.0544
     20 C          -5.1003   -2.1701   -3.6028 C.ar    1  LIG11      -0.0498
     21 C          -3.6703   -1.9122   -1.6778 C.ar    1  LIG11      -0.0498
     22 C          -1.8510    2.8464    0.9468 C.ar    1  LIG11       0.1665
     23 C           0.1564    3.1036   -0.3288 C.ar    1  LIG11      -0.0159
     24 C          -0.5162    3.1450    0.8695 C.ar    1  LIG11       0.1662
     25 C          -5.4638   -3.4485   -3.1747 C.ar    1  LIG11      -0.0195
     26 C          -4.0419   -3.1902   -1.2507 C.ar    1  LIG11      -0.0195
     27 C           1.8552   -1.5088   -4.6221 C.3     1  LIG11       0.0148
     28 C          -0.0784   -2.6773   -3.4926 C.3     1  LIG11       0.0148
     29 C          -4.9229   -3.9710   -2.0033 C.ar    1  LIG11       0.1201
     30 C           2.4519   -0.2976   -3.8939 C.3     1  LIG11      -0.0374
     31 C           0.5314   -4.0848   -3.6294 C.3     1  LIG11      -0.0374
     32 C          -1.1611    3.4168    2.9133 C.3     1  LIG11       0.2332
     33 C           2.3235    1.0565   -4.5980 C.3     1  LIG11      -0.0545
     34 C           0.6129   -4.6594   -5.0473 C.3     1  LIG11      -0.0545
     35 C           2.9740    1.1074   -5.9745 C.3     1  LIG11      -0.0652
     36 C          -0.7389   -4.8825   -5.7011 C.3     1  LIG11      -0.0652
     37 C          -5.9124   -6.1050   -2.3165 C.3     1  LIG11       0.0788
@<TRIPOS>BOND
     1     1    16   ar
     2     2    16   ar
     3     3    22    1
     4     3    32    1
     5     4    18    2
     6     5    24    1
     7     5    32    1
     8     6    29    1
     9     6    37    1
    10     7    11    1
    11     7    12    1
    12     7    15    1
    13     8    18   am
    14     8    27    1
    15     8    28    1
    16     9    10    1
    17     9    11    1
    18     9    16    1
    19    10    12    1
    20    10    13    1
    21    11    14    1
    22    13    17   ar
    23    13    19   ar
    24    14    20   ar
    25    14    21   ar
    26    15    18    1
    27    17    22   ar
    28    19    23   ar
    29    20    25   ar
    30    21    26   ar
    31    22    24   ar
    32    23    24   ar
    33    25    29   ar
    34    26    29   ar
    35    27    30    1
    36    28    31    1
    37    30    33    1
    38    31    34    1
    39    33    35    1
    40    34    36    1
