@<TRIPOS>MOLECULE
BOSENTAN_50CONFORMERS.pdb
 39 42 0 0 0
SMALL
GASTEIGER

@<TRIPOS>ATOM
      1  S1        -1.9010    0.7350    2.1070 S.O2    1  LGD1        0.0943
      2  O2        -2.2190    1.7060    1.0150 O.2     1  LGD1       -0.1483
      3  O3        -2.9340    0.5200    3.1650 O.2     1  LGD1       -0.1483
      4  O4        -2.4950   -2.6220   -0.3510 O.3     1  LGD1       -0.4427
      5  O5        -0.5750   -3.8240   -1.9930 O.3     1  LGD1       -0.4552
      6  O6        -3.4290   -0.1480   -1.5820 O.3     1  LGD1       -0.4684
      7  O7        -0.4690   -6.6230   -2.5950 O.3     1  LGD1       -0.2162
      8  N8        -1.7630   -0.7910    1.4500 N.pl3   1  LGD1       -0.0737
      9  N9         0.3550   -0.5470    0.3910 N.ar    1  LGD1       -0.2027
     10  N10        1.0070   -2.1020   -1.3570 N.ar    1  LGD1       -0.1866
     11  N11        3.6550   -1.0420   -0.4940 N.ar    1  LGD1       -0.2224
     12  N12        2.4310    1.1000   -0.6890 N.ar    1  LGD1       -0.2224
     13  C13        3.5940    2.5400    4.3250 C.3     1  LGD1        0.0189
     14  C14        2.1730    2.0110    3.9460 C.ar    1  LGD1       -0.0227
     15  C15        4.3470    2.8100    2.9910 C.3     1  LGD1        0.0044
     16  C16        4.5060    1.5490    5.0450 C.3     1  LGD1        0.0044
     17  C17        3.5860    3.8300    5.1100 C.3     1  LGD1        0.0044
     18  C18        1.1940    2.9500    3.5610 C.ar    1  LGD1       -0.0029
     19  C19        1.8540    0.6780    3.8810 C.ar    1  LGD1       -0.0029
     20  C20       -0.3490    1.1930    2.9280 C.ar    1  LGD1        0.1271
     21  C21        0.0330    2.5480    3.0220 C.ar    1  LGD1        0.0199
     22  C22        0.5410    0.2300    3.4700 C.ar    1  LGD1        0.0199
     23  C23       -0.8130   -1.1370    0.5020 C.ar    1  LGD1        0.2125
     24  C24       -1.2100   -2.1330   -0.4100 C.ar    1  LGD1        0.2327
     25  C25       -0.2170   -2.7150   -1.2390 C.ar    1  LGD1        0.2651
     26  C26        1.1970   -1.0290   -0.5360 C.ar    1  LGD1        0.2028
     27  C27       -3.4930   -2.5220   -1.3120 C.ar    1  LGD1        0.1793
     28  C28        2.5300   -0.2640   -0.6280 C.ar    1  LGD1        0.1990
     29  C29        0.4620   -4.4220   -2.8220 C.3     1  LGD1        0.2426
     30  C30       -3.9320   -1.3720   -1.9560 C.ar    1  LGD1        0.1730
     31  C31       -4.0140   -3.7880   -1.7400 C.ar    1  LGD1        0.0406
     32  C32       -4.7150   -1.5550   -3.1040 C.ar    1  LGD1        0.0401
     33  C33       -0.1100   -5.6630   -3.5090 C.3     1  LGD1        0.2292
     34  C34       -4.7280   -3.9200   -2.8970 C.ar    1  LGD1        0.0033
     35  C35       -5.0590   -2.8040   -3.6020 C.ar    1  LGD1        0.0033
     36  C36        4.8170   -0.4000   -0.3840 C.ar    1  LGD1        0.1023
     37  C37        3.6920    1.7200   -0.6320 C.ar    1  LGD1        0.1023
     38  C38        4.8330    0.9570   -0.3990 C.ar    1  LGD1        0.0414
     39  C39       -2.3950    0.3980   -2.4960 C.3     1  LGD1        0.2526
@<TRIPOS>BOND
     1    33     7    1
     2    33    29    1
     3     5    29    1
     4     5    25    1
     5    10    25   ar
     6    10    26   ar
     7    36    11   ar
     8    36    38   ar
     9    11    28   ar
    10    25    24   ar
    11    38    37   ar
    12    34    31   ar
    13    34    35   ar
    14    28    26    1
    15    28    12   ar
    16    26     9   ar
    17    31    27   ar
    18    37    12   ar
    19    24     4    1
    20    24    23   ar
    21     4    27    1
    22    27    30   ar
    23    35    32   ar
    24    15    13    1
    25     9    23   ar
    26    23     8    1
    27    30    32   ar
    28    30     6    1
    29     6    39    1
    30     8     1    1
    31    18    14   ar
    32    18    21   ar
    33    13    14    1
    34    13    17    1
    35    13    16    1
    36    14    19   ar
    37    21    20   ar
    38    20     1    1
    39    20    22   ar
    40    19    22   ar
    41     1     2    2
    42     1     3    2
@<TRIPOS>MOLECULE
2-[[2-[2-butyl-4-[(Z)-2-carboxy-3-(6-methoxy-1,3-benzodioxol-5-yl)prop-1-enyl]pyrazol-3-yl]-5-methoxyphenoxy]methyl]benzoic acid
 45 49 0 0 0
SMALL
GASTEIGER

@<TRIPOS>ATOM
      1 O           0.7966    1.9488   -0.5603 O.3     1  LIG11      -0.4866
      2 O          -5.2637   -5.0388   -1.3618 O.3     1  LIG11      -0.4526
      3 O          -7.2566   -4.1471   -2.3906 O.3     1  LIG11      -0.4525
      4 O          -4.6906   -0.8841   -4.8656 O.3     1  LIG11      -0.4947
      5 O           5.3899    2.6028   -0.2085 O.3     1  LIG11      -0.4950
      6 O          -2.3078    1.2267   -4.3669 O.co2   1  LIG11      -0.5449
      7 O          -3.5799    1.3103   -2.4658 O.co2   1  LIG11      -0.5449
      8 O           0.9920    4.9837    1.0783 O.co2   1  LIG11      -0.5446
      9 O           2.9225    5.1324    2.2337 O.co2   1  LIG11      -0.5446
     10 N           1.3233   -2.4904   -0.6431 N.ar    1  LIG11      -0.2630
     11 N           0.2566   -3.2259   -0.2620 N.ar    1  LIG11      -0.1785
     12 C           1.0644   -1.1127   -0.6147 C.ar    1  LIG11       0.0795
     13 C           2.4696   -3.1967   -1.1949 C.3     1  LIG11       0.0422
     14 C           2.1610   -4.0601   -2.4252 C.3     1  LIG11      -0.0336
     15 C          -0.2725   -1.1504   -1.0478 C.ar    1  LIG11       0.0207
     16 C           2.1288   -0.0870   -0.3639 C.ar    1  LIG11       0.0425
     17 C           1.8834   -3.2158   -3.6722 C.3     1  LIG11      -0.0542
     18 C          -0.7404   -2.4005   -0.5786 C.ar    1  LIG11       0.0571
     19 C          -1.1014   -0.1909   -1.7070 C.2     1  LIG11      -0.0459
     20 C          -2.2835   -1.6764   -3.4934 C.3     1  LIG11       0.0029
     21 C           1.9883    1.3048   -0.4448 C.ar    1  LIG11       0.1336
     22 C          -1.9899   -0.4242   -2.7039 C.2     1  LIG11      -0.0200
     23 C          -3.6494   -2.3152   -3.2575 C.ar    1  LIG11       0.0023
     24 C           3.4047   -0.5096    0.0766 C.ar    1  LIG11      -0.0456
     25 C           1.7176   -4.0848   -4.9088 C.3     1  LIG11      -0.0652
     26 C           3.1075    2.1624   -0.4227 C.ar    1  LIG11       0.0224
     27 C          -4.8272   -1.8328   -3.8858 C.ar    1  LIG11       0.1273
     28 C          -3.7560   -3.4256   -2.3981 C.ar    1  LIG11      -0.0092
     29 C           4.5191    0.3410    0.1525 C.ar    1  LIG11      -0.0191
     30 C          -5.0024   -3.9656   -2.1573 C.ar    1  LIG11       0.1667
     31 C           4.3836    1.6825   -0.1575 C.ar    1  LIG11       0.1236
     32 C          -6.1356   -3.4605   -2.7444 C.ar    1  LIG11       0.1697
     33 C          -6.0817   -2.4043   -3.6234 C.ar    1  LIG11       0.0258
     34 C          -2.6873    0.8368   -3.2250 C.2     1  LIG11       0.0680
     35 C           0.0999    2.2233    0.6766 C.3     1  LIG11       0.1153
     36 C          -6.6952   -5.1251   -1.4933 C.3     1  LIG11       0.2332
     37 C           0.7866    2.1620    2.0415 C.ar    1  LIG11      -0.0016
     38 C           1.5608    3.2122    2.5922 C.ar    1  LIG11       0.0037
     39 C           0.5798    0.9952    2.8161 C.ar    1  LIG11      -0.0547
     40 C          -5.6081    0.2023   -4.7473 C.3     1  LIG11       0.0788
     41 C           2.0859    3.0474    3.8950 C.ar    1  LIG11      -0.0525
     42 C           1.0953    0.8684    4.1068 C.ar    1  LIG11      -0.0614
     43 C           6.6610    2.1946    0.2695 C.3     1  LIG11       0.0788
     44 C           1.8498    1.8991    4.6494 C.ar    1  LIG11      -0.0611
     45 C           1.8500    4.5316    1.8947 C.2     1  LIG11       0.0720
@<TRIPOS>BOND
     1     1    35    1
     2     1    21    1
     3     2    36    1
     4     2    30    1
     5     3    32    1
     6     3    36    1
     7     4    27    1
     8     4    40    1
     9     5    31    1
    10     5    43    1
    11     6    34   ar
    12     7    34   ar
    13     8    45   ar
    14     9    45   ar
    15    10    11   ar
    16    10    12   ar
    17    10    13    1
    18    11    18   ar
    19    12    15   ar
    20    13    14    1
    21    14    17    1
    22    15    18   ar
    23    15    19    1
    24    16    24   ar
    25    16    21   ar
    26    16    12    1
    27    17    25    1
    28    19    22    2
    29    20    22    1
    30    20    23    1
    31    21    26   ar
    32    22    34    1
    33    23    28   ar
    34    23    27   ar
    35    24    29   ar
    36    26    31   ar
    37    27    33   ar
    38    28    30   ar
    39    29    31   ar
    40    30    32   ar
    41    32    33   ar
    42    35    37    1
    43    37    39   ar
    44    37    38   ar
    45    38    41   ar
    46    38    45    1
    47    39    42   ar
    48    41    44   ar
    49    42    44   ar
