@<TRIPOS>MOLECULE
BOSENTAN_50CONFORMERS.pdb
 39 42 0 0 0
SMALL
GASTEIGER

@<TRIPOS>ATOM
      1  S1        -1.5920    0.7080    2.2740 S.O2    1  LGD1        0.0943
      2  O2        -1.3490    1.8560    1.3290 O.2     1  LGD1       -0.1483
      3  O3        -2.7870    0.6970    3.1730 O.2     1  LGD1       -0.1483
      4  O4        -2.3980   -2.8600   -0.2400 O.3     1  LGD1       -0.4427
      5  O5        -0.5350   -3.8030   -2.0080 O.3     1  LGD1       -0.4552
      6  O6        -0.5610   -4.4470    1.2970 O.3     1  LGD1       -0.4684
      7  O7        -0.5480   -6.8990   -2.1550 O.3     1  LGD1       -0.2162
      8  N8        -1.8000   -0.6880    1.3690 N.pl3   1  LGD1       -0.0737
      9  N9         0.3860   -0.5770    0.4390 N.ar    1  LGD1       -0.2027
     10  N10        0.9790   -2.0590   -1.4670 N.ar    1  LGD1       -0.1866
     11  N11        2.5480    0.7850   -1.4200 N.ar    1  LGD1       -0.2224
     12  N12        3.4430   -0.8800    0.2360 N.ar    1  LGD1       -0.2224
     13  C13        3.1410   -0.0020    5.9550 C.3     1  LGD1        0.0189
     14  C14        1.9750    0.1560    4.9860 C.ar    1  LGD1       -0.0227
     15  C15        4.4860    0.6590    5.5210 C.3     1  LGD1        0.0044
     16  C16        3.5350   -1.4280    6.3530 C.3     1  LGD1        0.0044
     17  C17        3.0070    0.7020    7.3280 C.3     1  LGD1        0.0044
     18  C18        0.7230   -0.3990    5.3040 C.ar    1  LGD1       -0.0029
     19  C19        2.0400    1.0120    3.8350 C.ar    1  LGD1       -0.0029
     20  C20       -0.1660    0.4230    3.2060 C.ar    1  LGD1        0.1271
     21  C21       -0.3230   -0.2830    4.3990 C.ar    1  LGD1        0.0199
     22  C22        0.9900    1.1550    2.9170 C.ar    1  LGD1        0.0199
     23  C23       -0.8410   -1.1750    0.5410 C.ar    1  LGD1        0.2125
     24  C24       -1.1550   -2.2170   -0.2970 C.ar    1  LGD1        0.2327
     25  C25       -0.2340   -2.6720   -1.2400 C.ar    1  LGD1        0.2651
     26  C26        1.1820   -1.0860   -0.5290 C.ar    1  LGD1        0.2028
     27  C27       -2.6560   -4.1830    0.0900 C.ar    1  LGD1        0.1793
     28  C28        2.4890   -0.2940   -0.5660 C.ar    1  LGD1        0.1990
     29  C29        0.6870   -4.5840   -2.2510 C.3     1  LGD1        0.2426
     30  C30       -1.7460   -5.0330    0.7980 C.ar    1  LGD1        0.1730
     31  C31       -3.8700   -4.7310   -0.3700 C.ar    1  LGD1        0.0406
     32  C32       -2.0730   -6.3770    1.0220 C.ar    1  LGD1        0.0401
     33  C33        0.2220   -5.9440   -2.9520 C.3     1  LGD1        0.2292
     34  C34       -4.1550   -6.0760   -0.0640 C.ar    1  LGD1        0.0033
     35  C35       -3.3260   -6.9020    0.6510 C.ar    1  LGD1        0.0033
     36  C36        3.7540    1.4140   -1.4170 C.ar    1  LGD1        0.1023
     37  C37        4.6230   -0.2490    0.2180 C.ar    1  LGD1        0.1023
     38  C38        4.8140    0.8600   -0.6520 C.ar    1  LGD1        0.0414
     39  C39       -0.2510   -4.7460    2.6710 C.3     1  LGD1        0.2526
@<TRIPOS>BOND
     1    33     7    1
     2    33    29    1
     3     5    29    1
     4     5    25    1
     5    10    25   ar
     6    10    26   ar
     7    36    11   ar
     8    36    38   ar
     9    11    28   ar
    10    25    24   ar
    11    38    37   ar
    12    34    31   ar
    13    34    35   ar
    14    28    26    1
    15    28    12   ar
    16    26     9   ar
    17    31    27   ar
    18    37    12   ar
    19    24     4    1
    20    24    23   ar
    21     4    27    1
    22    27    30   ar
    23    35    32   ar
    24    15    13    1
    25     9    23   ar
    26    23     8    1
    27    30    32   ar
    28    30     6    1
    29     6    39    1
    30     8     1    1
    31    18    14   ar
    32    18    21   ar
    33    13    14    1
    34    13    17    1
    35    13    16    1
    36    14    19   ar
    37    21    20   ar
    38    20     1    1
    39    20    22   ar
    40    19    22   ar
    41     1     2    2
    42     1     3    2
@<TRIPOS>MOLECULE
01178588C
 32 34 0 0 0
SMALL
GASTEIGER

@<TRIPOS>ATOM
      1 S          -2.2065   -2.1807    1.9809 S.O2    1  LIG11       0.0756
      2 C          -0.9584   -1.6373    0.8562 C.ar    1  LIG11       0.1344
      3 N          -3.4791   -2.7615    1.0029 N.pl3   1  LIG11      -0.1951
      4 O          -2.7747   -0.9999    2.5985 O.2     1  LIG11      -0.1499
      5 O          -1.6910   -3.2871    2.7575 O.2     1  LIG11      -0.1499
      6 C           0.1312   -0.8683    1.2756 C.ar    1  LIG11       0.0975
      7 C          -1.1062   -1.9167   -0.5141 C.ar    1  LIG11      -0.0315
      8 C          -3.5628   -4.1842    1.0031 C.ar    1  LIG11       0.2006
      9 C           0.4868   -0.4266    2.6516 C.ar    1  LIG11       0.0023
     10 N           1.0346   -0.4028    0.3522 N.ar    1  LIG11      -0.2530
     11 C          -0.1821   -1.4382   -1.4334 C.ar    1  LIG11      -0.0417
     12 C          -4.2517   -4.8877    1.9988 C.ar    1  LIG11       0.2574
     13 N          -2.8037   -4.7978    0.0714 N.ar    1  LIG11      -0.2325
     14 C           0.4338   -1.2525    3.7824 C.ar    1  LIG11      -0.0523
     15 C           1.0097    0.8697    2.8548 C.ar    1  LIG11      -0.0523
     16 C           0.8664   -0.6893   -0.9538 C.ar    1  LIG11       0.0284
     17 N          -4.2509   -6.2421    2.0667 N.ar    1  LIG11      -0.2137
     18 O          -4.9935   -4.1583    2.9078 O.3     1  LIG11      -0.4773
     19 C          -2.7796   -6.1509    0.1687 C.ar    1  LIG11       0.0510
     20 C           0.8232   -0.7978    5.0507 C.ar    1  LIG11      -0.0579
     21 C           1.4449    1.3143    4.1111 C.ar    1  LIG11      -0.0579
     22 C          -3.4830   -6.8664    1.1379 C.ar    1  LIG11       0.0602
     23 C          -5.1875   -4.8650    4.1264 C.3     1  LIG11       0.0805
     24 C           1.3529    0.4799    5.2256 C.ar    1  LIG11      -0.0465
     25 C          -3.3980   -8.3599    1.1932 C.3     1  LIG11      -0.0208
     26 C           1.8383    0.9427    6.5874 C.3     1  LIG11      -0.0174
     27 C           3.2239    0.4153    7.0317 C.3     1  LIG11       0.0085
     28 C           3.4646    1.1030    8.4068 C.2     1  LIG11       0.0477
     29 C           3.2358   -1.0947    7.3044 C.3     1  LIG11      -0.0544
     30 C           4.3275    0.7615    6.0249 C.3     1  LIG11      -0.0544
     31 O           2.6527    0.7885    9.3268 O.co2   1  LIG11      -0.5493
     32 O           4.4386    1.9072    8.4661 O.co2   1  LIG11      -0.5493
@<TRIPOS>BOND
     1     1     5    2
     2     1     4    2
     3     1     3    1
     4     1     2    1
     5     2     6   ar
     6     2     7   ar
     7     3     8    1
     8     6    10   ar
     9     6     9    1
    10     7    11   ar
    11     8    12   ar
    12     8    13   ar
    13     9    14   ar
    14     9    15   ar
    15    10    16   ar
    16    11    16   ar
    17    12    17   ar
    18    12    18    1
    19    13    19   ar
    20    14    20   ar
    21    15    21   ar
    22    17    22   ar
    23    18    23    1
    24    19    22   ar
    25    20    24   ar
    26    21    24   ar
    27    22    25    1
    28    24    26    1
    29    26    27    1
    30    27    30    1
    31    27    29    1
    32    27    28    1
    33    28    32   ar
    34    28    31   ar
