@<TRIPOS>MOLECULE
BOSENTAN_50CONFORMERS.pdb
 39 42 0 0 0
SMALL
GASTEIGER

@<TRIPOS>ATOM
      1  S1        -1.5560   -0.1540    3.0420 S.O2    1  LGD1        0.0943
      2  O2        -0.3870    0.7390    3.1200 O.2     1  LGD1       -0.1483
      3  O3        -2.8790    0.3480    3.5100 O.2     1  LGD1       -0.1483
      4  O4        -2.4520   -2.8760   -0.3820 O.3     1  LGD1       -0.4427
      5  O5        -0.5300   -3.7540   -2.0620 O.3     1  LGD1       -0.4552
      6  O6        -1.9710   -4.5810    1.8700 O.3     1  LGD1       -0.4684
      7  O7        -1.3390   -6.6760   -2.6180 O.3     1  LGD1       -0.2162
      8  N8        -1.7750   -0.5880    1.4140 N.pl3   1  LGD1       -0.0737
      9  N9         0.3520   -0.6360    0.4360 N.ar    1  LGD1       -0.2027
     10  N10        0.9590   -2.0830   -1.3900 N.ar    1  LGD1       -0.1866
     11  N11        3.4060   -0.7050   -1.6780 N.ar    1  LGD1       -0.2224
     12  N12        2.4900    1.0070   -0.1720 N.ar    1  LGD1       -0.2224
     13  C13        0.1740   -5.4030    5.5970 C.3     1  LGD1        0.0189
     14  C14       -0.1680   -3.9810    5.1230 C.ar    1  LGD1       -0.0227
     15  C15        1.5190   -6.0480    5.2330 C.3     1  LGD1        0.0044
     16  C16       -0.9630   -6.4150    5.2580 C.3     1  LGD1        0.0044
     17  C17        0.2000   -5.5080    7.1670 C.3     1  LGD1        0.0044
     18  C18       -1.5290   -3.5390    5.1240 C.ar    1  LGD1       -0.0029
     19  C19        0.7990   -3.1630    4.4440 C.ar    1  LGD1       -0.0029
     20  C20       -0.9690   -1.5690    3.8710 C.ar    1  LGD1        0.1271
     21  C21       -1.8880   -2.3030    4.5850 C.ar    1  LGD1        0.0199
     22  C22        0.3720   -1.9940    3.7970 C.ar    1  LGD1        0.0199
     23  C23       -0.8560   -1.2330    0.5710 C.ar    1  LGD1        0.2125
     24  C24       -1.1990   -2.2330   -0.3540 C.ar    1  LGD1        0.2327
     25  C25       -0.1520   -2.7370   -1.1920 C.ar    1  LGD1        0.2651
     26  C26        1.1820   -1.0140   -0.6150 C.ar    1  LGD1        0.2028
     27  C27       -3.2960   -2.9720    0.7350 C.ar    1  LGD1        0.1793
     28  C28        2.4120   -0.1510   -0.8880 C.ar    1  LGD1        0.1990
     29  C29        0.2180   -4.9390   -1.6790 C.3     1  LGD1        0.2426
     30  C30       -3.0580   -3.7770    1.8300 C.ar    1  LGD1        0.1730
     31  C31       -4.4750   -2.2080    0.6210 C.ar    1  LGD1        0.0406
     32  C32       -3.9800   -3.7340    2.8740 C.ar    1  LGD1        0.0401
     33  C33       -0.0190   -6.1070   -2.6700 C.3     1  LGD1        0.2292
     34  C34       -5.4090   -2.2290    1.6530 C.ar    1  LGD1        0.0033
     35  C35       -5.0790   -2.9140    2.8110 C.ar    1  LGD1        0.0033
     36  C36        4.6270   -0.0440   -1.6350 C.ar    1  LGD1        0.1023
     37  C37        3.6800    1.7350   -0.2470 C.ar    1  LGD1        0.1023
     38  C38        4.6980    1.1140   -0.9460 C.ar    1  LGD1        0.0414
     39  C39       -2.3070   -5.9040    1.3650 C.3     1  LGD1        0.2526
@<TRIPOS>BOND
     1    33     7    1
     2    33    29    1
     3     5    29    1
     4     5    25    1
     5    10    25   ar
     6    10    26   ar
     7    36    11   ar
     8    36    38   ar
     9    11    28   ar
    10    25    24   ar
    11    38    37   ar
    12    34    31   ar
    13    34    35   ar
    14    28    26    1
    15    28    12   ar
    16    26     9   ar
    17    31    27   ar
    18    37    12   ar
    19    24     4    1
    20    24    23   ar
    21     4    27    1
    22    27    30   ar
    23    35    32   ar
    24    15    13    1
    25     9    23   ar
    26    23     8    1
    27    30    32   ar
    28    30     6    1
    29     6    39    1
    30     8     1    1
    31    18    14   ar
    32    18    21   ar
    33    13    14    1
    34    13    17    1
    35    13    16    1
    36    14    19   ar
    37    21    20   ar
    38    20     1    1
    39    20    22   ar
    40    19    22   ar
    41     1     2    2
    42     1     3    2
@<TRIPOS>MOLECULE
HTS1204-03362316-01
 44 47 0 0 0
SMALL
USER_CHARGES

@<TRIPOS>ATOM
      1 C1         -1.5122   -4.4565    5.5742 C.ar    1  UNK11      -0.0199
      2 N1         -2.7544   -2.6083    5.7580 N.ar    1  UNK11      -0.3494
      3 C2          1.2198   -7.4849   -0.4930 C.2     1  UNK11       0.3028
      4 C3         -2.7027   -3.9408    6.0492 C.ar    1  UNK11       0.0086
      5 C4         -2.7690   -6.8740    4.0009 C.2     1  UNK11       0.2342
      6 C5         -0.8002   -3.3576    4.9892 C.ar    1  UNK11       0.0031
      7 C6          0.4565   -7.1148    2.6739 C.2     1  UNK11       0.2340
      8 C7         -1.6160   -2.2237    5.0848 C.ar    1  UNK11       0.0491
      9 N2          0.9518   -6.4277    0.3425 N.am    1  UNK11      -0.2879
     10 N3          0.6166   -7.3768   -1.7416 N.am    1  UNK11      -0.2856
     11 N4         -0.4306   -6.2898    3.3336 N.am    1  UNK11      -0.3022
     12 N5         -2.9368   -7.2762    2.6936 N.am    1  UNK11      -0.3054
     13 C8         -1.2905   -6.7614    4.4271 C.3     1  UNK11       0.1034
     14 C9          1.4120   -6.3545    1.7331 C.3     1  UNK11       0.1011
     15 C10        -4.2636   -7.4921    2.0733 C.3     1  UNK11       0.0680
     16 C11        -1.0919   -5.8994    5.6908 C.3     1  UNK11       0.0013
     17 C12        -4.3543   -8.8681    1.3523 C.2     1  UNK11       0.0623
     18 C13        -4.5067   -6.5270    0.9023 C.3     1  UNK11       0.0133
     19 O1          1.9485   -8.4249   -0.1925 O.2     1  UNK11      -0.2526
     20 O2          0.4932   -8.3258    2.8540 O.2     1  UNK11      -0.2738
     21 O3         -3.6977   -6.7248    4.7923 O.2     1  UNK11      -0.2738
     22 N6         -5.5178   -4.3986    1.6030 N.ar    1  UNK11      -0.2598
     23 O4         -3.2323   -9.3168    0.9601 O.co2   1  UNK11      -0.5479
     24 C14         2.8838   -6.7522    1.9630 C.3     1  UNK11      -0.0236
     25 C15        -4.3839   -5.0690    1.2814 C.ar    1  UNK11       0.0434
     26 O5         -5.5096   -9.3571    1.2188 O.co2   1  UNK11      -0.5479
     27 C16        -3.8511   -1.7379    6.1142 C.3     1  UNK11       0.0119
     28 C17         0.1590   -6.1075   -2.3161 C.3     1  UNK11       0.0161
     29 C18         0.5751   -8.5702   -2.5790 C.3     1  UNK11       0.0161
     30 C19        -1.2371   -0.9789    4.5551 C.ar    1  UNK11      -0.0376
     31 C20         0.4611   -3.2208    4.3711 C.ar    1  UNK11      -0.0523
     32 C21         3.4670   -6.3010    3.3258 C.3     1  UNK11      -0.0446
     33 C22        -5.3862   -3.1094    1.9808 C.ar    1  UNK11       0.0279
     34 C23        -3.1287   -4.4559    1.2936 C.ar    1  UNK11      -0.0403
     35 C24         3.0339   -7.1936    4.4936 C.3     1  UNK11      -0.0626
     36 C25         4.9974   -6.3016    3.2553 C.3     1  UNK11      -0.0626
     37 C26         0.0694   -6.0649   -3.8451 C.3     1  UNK11      -0.0371
     38 C27         1.7367   -8.6527   -3.5716 C.3     1  UNK11      -0.0371
     39 C28         0.8451   -1.9886    3.8307 C.ar    1  UNK11      -0.0611
     40 C29         0.0019   -0.8854    3.9168 C.ar    1  UNK11      -0.0598
     41 C30        -4.1775   -2.4364    2.0349 C.ar    1  UNK11      -0.0436
     42 C31        -3.0272   -3.1258    1.6803 C.ar    1  UNK11      -0.0586
     43 C32         1.3874   -6.2968   -4.5886 C.3     1  UNK11      -0.0516
     44 C33         2.3519   -7.3163   -3.9861 C.3     1  UNK11      -0.0516
@<TRIPOS>BOND
     1     2     4   ar
     2     3     9   am
     3     1     4   ar
     4     5    13    1
     5     1     6   ar
     6     7    11   am
     7     6     8   ar
     8     9    14    1
     9     3    10   am
    10    11    13    1
    11     5    12   am
    12    13    16    1
    13     7    14    1
    14    12    15    1
    15     1    16    1
    16    15    17    1
    17    15    18    1
    18     3    19    2
    19     7    20    2
    20     5    21    2
    21    22    25   ar
    22    17    23   ar
    23    14    24    1
    24    18    25    1
    25    17    26   ar
    26     2    27    1
    27    10    28    1
    28    10    29    1
    29     8    30   ar
    30     6    31   ar
    31    24    32    1
    32    22    33   ar
    33    25    34   ar
    34    32    35    1
    35    32    36    1
    36    28    37    1
    37    29    38    1
    38    31    39   ar
    39    39    40   ar
    40    41    42   ar
    41    34    42   ar
    42    37    43    1
    43    38    44    1
    44     2     8   ar
    45    30    40   ar
    46    33    41   ar
    47    43    44    1
