@<TRIPOS>MOLECULE
BOSENTAN_50CONFORMERS.pdb
 39 42 0 0 0
SMALL
GASTEIGER

@<TRIPOS>ATOM
      1  S1        -1.3920    0.1130    2.7830 S.O2    1  LGD1        0.0943
      2  O2        -0.7240   -0.9390    3.6320 O.2     1  LGD1       -0.1483
      3  O3        -0.6510    1.3520    2.3260 O.2     1  LGD1       -0.1483
      4  O4        -2.4270   -2.8540   -0.2230 O.3     1  LGD1       -0.4427
      5  O5        -0.4910   -3.8040   -1.9810 O.3     1  LGD1       -0.4552
      6  O6        -0.6620   -4.5490    1.1140 O.3     1  LGD1       -0.4684
      7  O7        -0.5420   -5.1280   -5.0100 O.3     1  LGD1       -0.2162
      8  N8        -1.7570   -0.7460    1.4390 N.pl3   1  LGD1       -0.0737
      9  N9         0.3560   -0.5420    0.4180 N.ar    1  LGD1       -0.2027
     10  N10        0.9740   -2.1170   -1.3820 N.ar    1  LGD1       -0.1866
     11  N11        2.5870    0.1690   -2.2190 N.ar    1  LGD1       -0.2224
     12  N12        3.0570    0.1440    0.2340 N.ar    1  LGD1       -0.2224
     13  C13       -6.5500    1.6860    5.8280 C.3     1  LGD1        0.0189
     14  C14       -5.2870    1.2960    4.9490 C.ar    1  LGD1       -0.0227
     15  C15       -6.1970    1.9330    7.3590 C.3     1  LGD1        0.0044
     16  C16       -7.5170    0.4820    5.8200 C.3     1  LGD1        0.0044
     17  C17       -7.4280    2.8470    5.3990 C.3     1  LGD1        0.0044
     18  C18       -4.9800    1.9300    3.7750 C.ar    1  LGD1       -0.0029
     19  C19       -4.4450    0.2370    5.3770 C.ar    1  LGD1       -0.0029
     20  C20       -2.9230    0.4990    3.4880 C.ar    1  LGD1        0.1271
     21  C21       -3.7390    1.6450    3.1250 C.ar    1  LGD1        0.0199
     22  C22       -3.3600   -0.2190    4.6180 C.ar    1  LGD1        0.0199
     23  C23       -0.7890   -1.1580    0.5040 C.ar    1  LGD1        0.2125
     24  C24       -1.2210   -2.1570   -0.3740 C.ar    1  LGD1        0.2327
     25  C25       -0.2720   -2.6980   -1.2850 C.ar    1  LGD1        0.2651
     26  C26        1.1820   -1.0540   -0.5320 C.ar    1  LGD1        0.2028
     27  C27       -2.7750   -3.3860    1.0130 C.ar    1  LGD1        0.1793
     28  C28        2.3360   -0.1700   -0.8770 C.ar    1  LGD1        0.1990
     29  C29       -1.2370   -3.4560   -3.1890 C.3     1  LGD1        0.2426
     30  C30       -1.8930   -4.2200    1.7520 C.ar    1  LGD1        0.1730
     31  C31       -3.9670   -2.9860    1.5410 C.ar    1  LGD1        0.0406
     32  C32       -2.3040   -4.6830    3.0280 C.ar    1  LGD1        0.0401
     33  C33       -1.5920   -4.6880   -4.0550 C.3     1  LGD1        0.2292
     34  C34       -4.4070   -3.5290    2.7460 C.ar    1  LGD1        0.0033
     35  C35       -3.5620   -4.4230    3.4670 C.ar    1  LGD1        0.0033
     36  C36        3.6200    0.9930   -2.3960 C.ar    1  LGD1        0.1023
     37  C37        4.2410    0.8150   -0.0070 C.ar    1  LGD1        0.1023
     38  C38        4.3530    1.3790   -1.2630 C.ar    1  LGD1        0.0414
     39  C39        0.1300   -5.5850    1.8140 C.3     1  LGD1        0.2526
@<TRIPOS>BOND
     1    33     7    1
     2    33    29    1
     3     5    29    1
     4     5    25    1
     5    10    25   ar
     6    10    26   ar
     7    36    11   ar
     8    36    38   ar
     9    11    28   ar
    10    25    24   ar
    11    38    37   ar
    12    34    31   ar
    13    34    35   ar
    14    28    26    1
    15    28    12   ar
    16    26     9   ar
    17    31    27   ar
    18    37    12   ar
    19    24     4    1
    20    24    23   ar
    21     4    27    1
    22    27    30   ar
    23    35    32   ar
    24    15    13    1
    25     9    23   ar
    26    23     8    1
    27    30    32   ar
    28    30     6    1
    29     6    39    1
    30     8     1    1
    31    18    14   ar
    32    18    21   ar
    33    13    14    1
    34    13    17    1
    35    13    16    1
    36    14    19   ar
    37    21    20   ar
    38    20     1    1
    39    20    22   ar
    40    19    22   ar
    41     1     2    2
    42     1     3    2
@<TRIPOS>MOLECULE
9911482
 30 32 0 0 0
SMALL
GASTEIGER

@<TRIPOS>ATOM
      1 S          -1.7012   -5.2356    4.8568 S.O2    1  LIG11       0.0758
      2 S          -4.5084   -2.7016    2.9067 S.2     1  LIG11      -0.0902
      3 O          -4.6526   -7.1357    5.1061 O.2     1  LIG11      -0.3377
      4 O          -0.9649   -4.1899    5.5345 O.2     1  LIG11      -0.1499
      5 O          -1.0304   -6.1824    3.9929 O.2     1  LIG11      -0.1499
      6 O          -3.9674   -3.8156    6.4660 O.2     1  LIG11      -0.2692
      7 O          -6.5113   -0.6739    6.7255 O.2     1  LIG11      -0.2923
      8 N          -4.1276   -1.6398    5.9773 N.am    1  LIG11      -0.2802
      9 N          -2.6466   -6.0498    6.0075 N.pl3   1  LIG11      -0.1831
     10 N          -5.0315   -8.3857    4.6495 N.ar    1  LIG11      -0.0810
     11 C          -4.0535   -0.4682    5.1971 C.ar    1  LIG11       0.0471
     12 C          -2.7435   -4.3311    3.7902 C.ar    1  LIG11       0.1277
     13 C          -2.8425   -0.0274    4.6335 C.ar    1  LIG11      -0.0283
     14 C          -5.2292    0.2881    5.0051 C.ar    1  LIG11       0.0388
     15 C          -3.5904   -3.3208    4.2202 C.ar    1  LIG11       0.1007
     16 C          -4.0269    1.8504    3.5922 C.ar    1  LIG11      -0.0494
     17 C          -2.8533    1.1187    3.8151 C.ar    1  LIG11      -0.0541
     18 C          -5.2154    1.4305    4.1961 C.ar    1  LIG11      -0.0466
     19 C          -3.8743   -2.9437    5.5986 C.2     1  LIG11       0.2568
     20 C          -3.3422   -7.1600    5.4622 C.ar    1  LIG11       0.2399
     21 C          -2.7892   -4.5236    2.3745 C.ar    1  LIG11      -0.0273
     22 C          -2.8471   -8.4365    5.3152 C.ar    1  LIG11       0.0350
     23 C          -1.5130   -0.6835    4.8946 C.3     1  LIG11      -0.0379
     24 C          -6.5116   -0.1743    5.6017 C.2     1  LIG11       0.1619
     25 C          -3.9516   -9.1640    4.7924 C.ar    1  LIG11       0.0854
     26 C          -3.7000   -3.6865    1.7718 C.ar    1  LIG11      -0.0217
     27 C          -4.0253    3.0534    2.6943 C.3     1  LIG11      -0.0397
     28 C          -1.5043   -8.9577    5.6577 C.3     1  LIG11      -0.0330
     29 C          -4.0145  -10.6050    4.4500 C.3     1  LIG11      -0.0188
     30 C          -7.7703   -0.0453    4.7871 C.3     1  LIG11      -0.0013
@<TRIPOS>BOND
     1     1     4    2
     2     1     5    2
     3     1     9    1
     4     1    12    1
     5     2    15   ar
     6     2    26   ar
     7     3    10   ar
     8     3    20   ar
     9     6    19    2
    10     7    24    2
    11     8    11    1
    12     8    19   am
    13     9    20    1
    14    10    25   ar
    15    11    13   ar
    16    11    14   ar
    17    12    15   ar
    18    12    21   ar
    19    13    17   ar
    20    13    23    1
    21    14    18   ar
    22    14    24    1
    23    15    19    1
    24    16    17   ar
    25    16    18   ar
    26    16    27    1
    27    20    22   ar
    28    21    26   ar
    29    22    25   ar
    30    22    28    1
    31    24    30    1
    32    25    29    1
