@<TRIPOS>MOLECULE
BOSENTAN_50CONFORMERS.pdb
 39 42 0 0 0
SMALL
GASTEIGER

@<TRIPOS>ATOM
      1  S1        -2.2130   -0.9610    2.7860 S.O2    1  LGD1        0.0943
      2  O2        -1.2310   -1.8870    3.3660 O.2     1  LGD1       -0.1483
      3  O3        -2.3150    0.3660    3.4370 O.2     1  LGD1       -0.1483
      4  O4        -2.4510   -2.9280   -0.0960 O.3     1  LGD1       -0.4427
      5  O5        -0.5660   -3.7200   -2.0470 O.3     1  LGD1       -0.4552
      6  O6        -0.6560   -4.8360    1.1410 O.3     1  LGD1       -0.4684
      7  O7        -1.0530   -6.3730   -2.7650 O.3     1  LGD1       -0.2162
      8  N8        -1.7870   -0.6080    1.2480 N.pl3   1  LGD1       -0.0737
      9  N9         0.3610   -0.5810    0.4590 N.ar    1  LGD1       -0.2027
     10  N10        0.9730   -2.0690   -1.4600 N.ar    1  LGD1       -0.1866
     11  N11        3.5900   -1.1320   -1.2680 N.ar    1  LGD1       -0.2224
     12  N12        2.5820    0.8690   -0.0850 N.ar    1  LGD1       -0.2224
     13  C13       -7.3260   -3.9710    1.5890 C.3     1  LGD1        0.0189
     14  C14       -6.0780   -3.1800    1.8900 C.ar    1  LGD1       -0.0227
     15  C15       -7.6350   -3.9770    0.1120 C.3     1  LGD1        0.0044
     16  C16       -8.5540   -3.4160    2.3330 C.3     1  LGD1        0.0044
     17  C17       -7.2090   -5.4830    1.9100 C.3     1  LGD1        0.0044
     18  C18       -5.9650   -1.8470    1.5700 C.ar    1  LGD1       -0.0029
     19  C19       -5.0280   -3.7830    2.6350 C.ar    1  LGD1       -0.0029
     20  C20       -3.7990   -1.7080    2.5850 C.ar    1  LGD1        0.1271
     21  C21       -4.8750   -1.0430    2.0160 C.ar    1  LGD1        0.0199
     22  C22       -3.9180   -3.0410    3.0260 C.ar    1  LGD1        0.0199
     23  C23       -0.8110   -1.2550    0.5910 C.ar    1  LGD1        0.2125
     24  C24       -1.1400   -2.3210   -0.2160 C.ar    1  LGD1        0.2327
     25  C25       -0.2180   -2.6770   -1.2160 C.ar    1  LGD1        0.2651
     26  C26        1.1700   -1.0450   -0.5500 C.ar    1  LGD1        0.2028
     27  C27       -2.7100   -4.3130   -0.0590 C.ar    1  LGD1        0.1793
     28  C28        2.6010   -0.3900   -0.5990 C.ar    1  LGD1        0.1990
     29  C29        0.4460   -4.8130   -1.9160 C.3     1  LGD1        0.2426
     30  C30       -1.9410   -5.1940    0.6780 C.ar    1  LGD1        0.1730
     31  C31       -3.9190   -4.7220   -0.5350 C.ar    1  LGD1        0.0406
     32  C32       -2.2500   -6.5580    0.7410 C.ar    1  LGD1        0.0401
     33  C33        0.2050   -5.7470   -3.0780 C.3     1  LGD1        0.2292
     34  C34       -4.1890   -6.1270   -0.6620 C.ar    1  LGD1        0.0033
     35  C35       -3.3490   -6.9720    0.0120 C.ar    1  LGD1        0.0033
     36  C36        4.8260   -0.5880   -1.3240 C.ar    1  LGD1        0.1023
     37  C37        3.8140    1.4510   -0.2760 C.ar    1  LGD1        0.1023
     38  C38        4.8740    0.7260   -0.7820 C.ar    1  LGD1        0.0414
     39  C39       -0.1790   -5.1290    2.4860 C.3     1  LGD1        0.2526
@<TRIPOS>BOND
     1    33     7    1
     2    33    29    1
     3     5    29    1
     4     5    25    1
     5    10    25   ar
     6    10    26   ar
     7    36    11   ar
     8    36    38   ar
     9    11    28   ar
    10    25    24   ar
    11    38    37   ar
    12    34    31   ar
    13    34    35   ar
    14    28    26    1
    15    28    12   ar
    16    26     9   ar
    17    31    27   ar
    18    37    12   ar
    19    24     4    1
    20    24    23   ar
    21     4    27    1
    22    27    30   ar
    23    35    32   ar
    24    15    13    1
    25     9    23   ar
    26    23     8    1
    27    30    32   ar
    28    30     6    1
    29     6    39    1
    30     8     1    1
    31    18    14   ar
    32    18    21   ar
    33    13    14    1
    34    13    17    1
    35    13    16    1
    36    14    19   ar
    37    21    20   ar
    38    20     1    1
    39    20    22   ar
    40    19    22   ar
    41     1     2    2
    42     1     3    2
@<TRIPOS>MOLECULE
02228316B
 42 46 0 0 0
SMALL
GASTEIGER

@<TRIPOS>ATOM
      1 C           0.7836   -9.5347   -0.7321 C.3     1  LIG11       0.2491
      2 C          -0.7110   -9.4523   -0.4887 C.2     1  LIG11       0.3556
      3 N           1.0180   -8.5777   -1.8445 N.2     1  LIG11      -0.0687
      4 C           1.2734  -10.9289   -1.1360 C.3     1  LIG11       0.0059
      5 C           1.5958   -9.1175    0.4949 C.3     1  LIG11       0.0059
      6 N          -1.1608   -8.4529   -1.3042 N.am    1  LIG11      -0.1529
      7 O          -1.3676  -10.1575    0.2608 O.2     1  LIG11      -0.2422
      8 C          -0.1341   -8.0245   -2.0646 C.2     1  LIG11       0.2916
      9 C           2.3064  -11.3169   -0.0805 C.3     1  LIG11      -0.0481
     10 C           2.8415   -9.9889    0.4277 C.3     1  LIG11      -0.0481
     11 C          -2.5630   -8.0863   -1.3892 C.3     1  LIG11       0.1137
     12 C          -0.3455   -6.9640   -3.1218 C.3     1  LIG11       0.0509
     13 C          -2.9798   -6.8913   -0.5573 C.ar    1  LIG11      -0.0073
     14 C           0.9035   -6.5365   -3.8923 C.3     1  LIG11      -0.0424
     15 C          -4.3469   -6.7031   -0.3052 C.ar    1  LIG11      -0.0491
     16 C          -2.0939   -5.9207   -0.0896 C.ar    1  LIG11      -0.0544
     17 C           2.0126   -5.8607   -3.0780 C.3     1  LIG11      -0.0554
     18 C          -4.8336   -5.6034    0.4363 C.ar    1  LIG11      -0.0138
     19 C          -2.5615   -4.8018    0.6086 C.ar    1  LIG11      -0.0533
     20 C           1.5456   -4.6910   -2.2284 C.3     1  LIG11      -0.0653
     21 C          -3.9254   -4.6320    0.9191 C.ar    1  LIG11      -0.0106
     22 C          -6.3323   -5.5129    0.6193 C.3     1  LIG11       0.0732
     23 C          -4.3385   -3.4639    1.7333 C.ar    1  LIG11       0.0091
     24 O          -6.8626   -4.8948   -0.5529 O.3     1  LIG11      -0.3754
     25 C          -3.8607   -3.1878    3.0358 C.ar    1  LIG11       0.1162
     26 C          -5.2440   -2.5360    1.1771 C.ar    1  LIG11      -0.0521
     27 C          -8.2731   -4.7092   -0.5194 C.3     1  LIG11       0.0453
     28 S          -2.7334   -4.2852    3.8779 S.O2    1  LIG11       0.0741
     29 C          -4.2802   -2.0412    3.7362 C.ar    1  LIG11      -0.0345
     30 C          -5.6859   -1.4161    1.8875 C.ar    1  LIG11      -0.0611
     31 C          -9.0076   -5.9810   -0.9014 C.3     1  LIG11      -0.0416
     32 N          -3.2505   -4.1861    5.5019 N.pl3   1  LIG11      -0.1965
     33 O          -1.4087   -3.7245    3.7309 O.2     1  LIG11      -0.1499
     34 O          -3.0488   -5.6502    3.5067 O.2     1  LIG11      -0.1499
     35 C          -5.2018   -1.1669    3.1654 C.ar    1  LIG11      -0.0599
     36 C          -2.3455   -4.7292    6.4222 C.ar    1  LIG11       0.1837
     37 C          -2.2486   -6.0982    6.7905 C.ar    1  LIG11       0.0342
     38 N          -1.5143   -3.9642    7.1299 N.ar    1  LIG11      -0.0614
     39 C          -1.2578   -6.1009    7.7492 C.ar    1  LIG11       0.1390
     40 C          -2.9862   -7.2675    6.2596 C.3     1  LIG11      -0.0330
     41 O          -0.8191   -4.8307    7.9537 O.2     1  LIG11      -0.3578
     42 C          -0.6115   -7.1519    8.5579 C.3     1  LIG11      -0.0034
@<TRIPOS>BOND
     1     1     5    1
     2     1     4    1
     3     1     2    1
     4     1     3    1
     5     2     6   am
     6     2     7    2
     7     3     8    2
     8     4     9    1
     9     5    10    1
    10     6     8    1
    11     6    11    1
    12     8    12    1
    13     9    10    1
    14    11    13    1
    15    12    14    1
    16    13    15   ar
    17    13    16   ar
    18    14    17    1
    19    15    18   ar
    20    16    19   ar
    21    17    20    1
    22    18    21   ar
    23    18    22    1
    24    19    21   ar
    25    21    23    1
    26    22    24    1
    27    23    26   ar
    28    23    25   ar
    29    24    27    1
    30    25    29   ar
    31    25    28    1
    32    26    30   ar
    33    27    31    1
    34    28    34    2
    35    28    33    2
    36    28    32    1
    37    29    35   ar
    38    30    35   ar
    39    32    36    1
    40    36    37   ar
    41    36    38   ar
    42    37    39   ar
    43    37    40    1
    44    38    41   ar
    45    39    41   ar
    46    39    42    1
