@<TRIPOS>MOLECULE
BOSENTAN_50CONFORMERS.pdb
 39 42 0 0 0
SMALL
GASTEIGER

@<TRIPOS>ATOM
      1  S1        -1.4490   -0.0940    2.9560 S.O2    1  LGD1        0.0943
      2  O2        -0.6240    1.1470    2.7880 O.2     1  LGD1       -0.1483
      3  O3        -2.8460   -0.0310    3.4150 O.2     1  LGD1       -0.1483
      4  O4        -2.3840   -2.7850   -0.2570 O.3     1  LGD1       -0.4427
      5  O5        -0.5460   -3.7510   -2.1030 O.3     1  LGD1       -0.4552
      6  O6        -0.6450   -4.8040    0.7750 O.3     1  LGD1       -0.4684
      7  O7        -0.8830   -5.5220   -4.4490 O.3     1  LGD1       -0.2162
      8  N8        -1.7980   -0.6580    1.3530 N.pl3   1  LGD1       -0.0737
      9  N9         0.4100   -0.5470    0.4560 N.ar    1  LGD1       -0.2027
     10  N10        0.9550   -2.1210   -1.3620 N.ar    1  LGD1       -0.1866
     11  N11        2.6830    0.7690    0.1300 N.ar    1  LGD1       -0.2224
     12  N12        3.2310   -0.6310   -1.8090 N.ar    1  LGD1       -0.2224
     13  C13        1.2750   -4.7890    5.8630 C.3     1  LGD1        0.0189
     14  C14        0.5530   -3.7060    5.0390 C.ar    1  LGD1       -0.0227
     15  C15        2.5330   -5.3980    5.1060 C.3     1  LGD1        0.0044
     16  C16        0.4010   -5.9280    6.3500 C.3     1  LGD1        0.0044
     17  C17        1.9010   -4.1580    7.1590 C.3     1  LGD1        0.0044
     18  C18       -0.8360   -3.7170    4.7560 C.ar    1  LGD1       -0.0029
     19  C19        1.3090   -2.5880    4.6180 C.ar    1  LGD1       -0.0029
     20  C20       -0.6790   -1.5150    3.7350 C.ar    1  LGD1        0.1271
     21  C21       -1.4510   -2.6580    4.0750 C.ar    1  LGD1        0.0199
     22  C22        0.6770   -1.5660    3.9610 C.ar    1  LGD1        0.0199
     23  C23       -0.8380   -1.1710    0.5840 C.ar    1  LGD1        0.2125
     24  C24       -1.1500   -2.2740   -0.3100 C.ar    1  LGD1        0.2327
     25  C25       -0.2310   -2.7580   -1.2060 C.ar    1  LGD1        0.2651
     26  C26        1.1800   -0.9970   -0.6040 C.ar    1  LGD1        0.2028
     27  C27       -2.7950   -3.6620    0.7790 C.ar    1  LGD1        0.1793
     28  C28        2.5110   -0.2550   -0.7330 C.ar    1  LGD1        0.1990
     29  C29        0.4960   -4.6320   -2.5040 C.3     1  LGD1        0.2426
     30  C30       -1.8980   -4.5650    1.3390 C.ar    1  LGD1        0.1730
     31  C31       -4.1250   -3.6780    1.1760 C.ar    1  LGD1        0.0406
     32  C32       -2.4090   -5.4000    2.3060 C.ar    1  LGD1        0.0401
     33  C33       -0.1650   -5.8480   -3.1830 C.3     1  LGD1        0.2292
     34  C34       -4.6090   -4.5870    2.0420 C.ar    1  LGD1        0.0033
     35  C35       -3.7710   -5.4980    2.6050 C.ar    1  LGD1        0.0033
     36  C36        3.9140    1.3700    0.0300 C.ar    1  LGD1        0.1023
     37  C37        4.4240    0.0080   -1.9080 C.ar    1  LGD1        0.1023
     38  C38        4.7880    0.9720   -0.9580 C.ar    1  LGD1        0.0414
     39  C39        0.4930   -4.7900    1.6810 C.3     1  LGD1        0.2526
@<TRIPOS>BOND
     1    33     7    1
     2    33    29    1
     3     5    29    1
     4     5    25    1
     5    10    25   ar
     6    10    26   ar
     7    36    11   ar
     8    36    38   ar
     9    11    28   ar
    10    25    24   ar
    11    38    37   ar
    12    34    31   ar
    13    34    35   ar
    14    28    26    1
    15    28    12   ar
    16    26     9   ar
    17    31    27   ar
    18    37    12   ar
    19    24     4    1
    20    24    23   ar
    21     4    27    1
    22    27    30   ar
    23    35    32   ar
    24    15    13    1
    25     9    23   ar
    26    23     8    1
    27    30    32   ar
    28    30     6    1
    29     6    39    1
    30     8     1    1
    31    18    14   ar
    32    18    21   ar
    33    13    14    1
    34    13    17    1
    35    13    16    1
    36    14    19   ar
    37    21    20   ar
    38    20     1    1
    39    20    22   ar
    40    19    22   ar
    41     1     2    2
    42     1     3    2
@<TRIPOS>MOLECULE
156690
 38 41 0 0 0
SMALL
GASTEIGER

@<TRIPOS>ATOM
      1 S          -3.7366   -1.4510    1.8861 S.O2    1  LIG11       0.0741
      2 O          -0.7459   -6.5222    5.0161 O.2     1  LIG11      -0.2756
      3 O          -3.1942   -0.7742    3.0454 O.2     1  LIG11      -0.1499
      4 O          -5.1041   -1.1925    1.4774 O.2     1  LIG11      -0.1499
      5 O           1.9614    0.6965    4.3984 O.2     1  LIG11      -0.4436
      6 O          -2.2283   -3.4598   -1.9159 O.2     1  LIG11      -0.3578
      7 N          -0.7615   -4.8413    6.5688 N.am    1  LIG11      -0.3002
      8 N          -2.7375   -1.0526    0.5692 N.pl3   1  LIG11      -0.1965
      9 N           1.7048   -0.1238    6.4884 N.ar    1  LIG11      -0.2175
     10 N          -1.9104   -2.8737   -0.7057 N.ar    1  LIG11      -0.0614
     11 C           1.9457   -7.4458    5.7167 C.3     1  LIG11      -0.0295
     12 C           1.0247   -6.5956    6.6406 C.3     1  LIG11       0.0290
     13 C           3.1293   -7.9583    6.5663 C.3     1  LIG11      -0.0596
     14 C           2.5123   -6.5802    4.5770 C.3     1  LIG11      -0.0596
     15 C           1.2335   -8.6757    5.1274 C.3     1  LIG11      -0.0596
     16 C          -0.2226   -5.9877    5.9904 C.2     1  LIG11       0.2161
     17 C          -1.7508   -4.0441    5.8004 C.3     1  LIG11       0.0400
     18 C          -1.0965   -3.0805    4.8143 C.ar    1  LIG11      -0.0216
     19 C          -1.3106   -3.0846    3.4105 C.ar    1  LIG11      -0.0113
     20 C          -2.4149   -3.8161    2.7373 C.ar    1  LIG11       0.0090
     21 C          -0.3053   -4.3282    7.8531 C.3     1  LIG11       0.0035
     22 C          -0.2116   -2.1194    5.3588 C.ar    1  LIG11      -0.0442
     23 C          -3.5382   -3.2189    2.1081 C.ar    1  LIG11       0.1162
     24 C          -0.4276   -2.3220    2.6212 C.ar    1  LIG11      -0.0529
     25 C           0.5563   -1.2611    4.5648 C.ar    1  LIG11       0.0372
     26 C           0.4785   -1.4128    3.1824 C.ar    1  LIG11      -0.0489
     27 C          -2.3573   -5.2204    2.6908 C.ar    1  LIG11      -0.0521
     28 C          -4.5920   -4.0092    1.5985 C.ar    1  LIG11      -0.0345
     29 C          -3.3993   -6.0029    2.1844 C.ar    1  LIG11      -0.0611
     30 C           1.4111   -0.2666    5.2068 C.ar    1  LIG11       0.2271
     31 C          -4.5280   -5.3972    1.6560 C.ar    1  LIG11      -0.0599
     32 C          -2.7737   -1.8708   -0.5553 C.ar    1  LIG11       0.1837
     33 C          -3.5834   -1.6945   -1.7026 C.ar    1  LIG11       0.0342
     34 C          -3.2208   -2.7506   -2.5145 C.ar    1  LIG11       0.1390
     35 C          -4.5505   -0.6190   -2.0070 C.3     1  LIG11      -0.0330
     36 C           2.6421    1.5043    5.2573 C.ar    1  LIG11       0.1125
     37 C           2.4902    0.9995    6.5240 C.ar    1  LIG11       0.0663
     38 C          -3.6414   -3.2164   -3.8506 C.3     1  LIG11      -0.0034
@<TRIPOS>BOND
     1     1     3    2
     2     1     4    2
     3     1     8    1
     4     1    23    1
     5     2    16    2
     6     5    30   ar
     7     5    36   ar
     8     6    10   ar
     9     6    34   ar
    10     7    16   am
    11     7    17    1
    12     7    21    1
    13     8    32    1
    14     9    30   ar
    15     9    37   ar
    16    10    32   ar
    17    11    12    1
    18    11    13    1
    19    11    14    1
    20    11    15    1
    21    12    16    1
    22    17    18    1
    23    18    19   ar
    24    18    22   ar
    25    19    20    1
    26    19    24   ar
    27    20    23   ar
    28    20    27   ar
    29    22    25   ar
    30    23    28   ar
    31    24    26   ar
    32    25    26   ar
    33    25    30    1
    34    27    29   ar
    35    28    31   ar
    36    29    31   ar
    37    32    33   ar
    38    33    34   ar
    39    33    35    1
    40    34    38    1
    41    36    37   ar
