@<TRIPOS>MOLECULE
BOSENTAN_50CONFORMERS.pdb
 39 42 0 0 0
SMALL
GASTEIGER

@<TRIPOS>ATOM
      1  S1        -1.4390   -0.2770    2.9850 S.O2    1  LGD1        0.0943
      2  O2        -0.6700   -1.4790    3.3950 O.2     1  LGD1       -0.1483
      3  O3        -0.7820    1.0800    2.9240 O.2     1  LGD1       -0.1483
      4  O4        -2.3410   -2.9570   -0.1060 O.3     1  LGD1       -0.4427
      5  O5        -0.5880   -3.7510   -2.0700 O.3     1  LGD1       -0.4552
      6  O6        -0.6390   -4.6760    1.2730 O.3     1  LGD1       -0.4684
      7  O7         0.2720   -6.7200   -2.4470 O.3     1  LGD1       -0.2162
      8  N8        -1.8070   -0.6970    1.4040 N.pl3   1  LGD1       -0.0737
      9  N9         0.3430   -0.4940    0.3660 N.ar    1  LGD1       -0.2027
     10  N10        0.9830   -2.1230   -1.3670 N.ar    1  LGD1       -0.1866
     11  N11        2.5130    1.1060   -0.5040 N.ar    1  LGD1       -0.2224
     12  N12        3.6290   -1.0050   -1.1160 N.ar    1  LGD1       -0.2224
     13  C13       -6.5950    0.1700    6.2170 C.3     1  LGD1        0.0189
     14  C14       -5.3280   -0.0220    5.3910 C.ar    1  LGD1       -0.0227
     15  C15       -6.5870    1.3970    7.0820 C.3     1  LGD1        0.0044
     16  C16       -7.0120   -0.9870    7.1630 C.3     1  LGD1        0.0044
     17  C17       -7.7730    0.2730    5.3230 C.3     1  LGD1        0.0044
     18  C18       -4.6910   -1.2290    5.3750 C.ar    1  LGD1       -0.0029
     19  C19       -4.8140    1.0550    4.6240 C.ar    1  LGD1       -0.0029
     20  C20       -2.9390   -0.2310    3.9090 C.ar    1  LGD1        0.1271
     21  C21       -3.4680   -1.3120    4.6530 C.ar    1  LGD1        0.0199
     22  C22       -3.6280    0.9530    3.8950 C.ar    1  LGD1        0.0199
     23  C23       -0.8340   -1.1740    0.5510 C.ar    1  LGD1        0.2125
     24  C24       -1.1200   -2.2620   -0.3010 C.ar    1  LGD1        0.2327
     25  C25       -0.2210   -2.7180   -1.2450 C.ar    1  LGD1        0.2651
     26  C26        1.2260   -1.0560   -0.5310 C.ar    1  LGD1        0.2028
     27  C27       -2.7610   -3.5750    1.0700 C.ar    1  LGD1        0.1793
     28  C28        2.5840   -0.2650   -0.6670 C.ar    1  LGD1        0.1990
     29  C29        0.4340   -4.2220   -2.9040 C.3     1  LGD1        0.2426
     30  C30       -1.9740   -4.5840    1.6410 C.ar    1  LGD1        0.1730
     31  C31       -3.9860   -3.2280    1.6160 C.ar    1  LGD1        0.0406
     32  C32       -2.5570   -5.3210    2.7090 C.ar    1  LGD1        0.0401
     33  C33        0.0290   -5.6430   -3.4140 C.3     1  LGD1        0.2292
     34  C34       -4.5440   -3.9250    2.6490 C.ar    1  LGD1        0.0033
     35  C35       -3.8470   -5.0250    3.1700 C.ar    1  LGD1        0.0033
     36  C36        3.6780    1.8040   -0.6970 C.ar    1  LGD1        0.1023
     37  C37        4.7690   -0.3520   -1.2920 C.ar    1  LGD1        0.1023
     38  C38        4.7980    1.0310   -1.0460 C.ar    1  LGD1        0.0414
     39  C39       -0.1810   -5.9900    0.9310 C.3     1  LGD1        0.2526
@<TRIPOS>BOND
     1    33     7    1
     2    33    29    1
     3     5    29    1
     4     5    25    1
     5    10    25   ar
     6    10    26   ar
     7    36    11   ar
     8    36    38   ar
     9    11    28   ar
    10    25    24   ar
    11    38    37   ar
    12    34    31   ar
    13    34    35   ar
    14    28    26    1
    15    28    12   ar
    16    26     9   ar
    17    31    27   ar
    18    37    12   ar
    19    24     4    1
    20    24    23   ar
    21     4    27    1
    22    27    30   ar
    23    35    32   ar
    24    15    13    1
    25     9    23   ar
    26    23     8    1
    27    30    32   ar
    28    30     6    1
    29     6    39    1
    30     8     1    1
    31    18    14   ar
    32    18    21   ar
    33    13    14    1
    34    13    17    1
    35    13    16    1
    36    14    19   ar
    37    21    20   ar
    38    20     1    1
    39    20    22   ar
    40    19    22   ar
    41     1     2    2
    42     1     3    2
@<TRIPOS>MOLECULE
02228316B
 42 46 0 0 0
SMALL
GASTEIGER

@<TRIPOS>ATOM
      1 C          -0.7089   -6.0067   -2.3397 C.3     1  LIG11       0.2491
      2 C          -1.9482   -5.7922   -1.4988 C.2     1  LIG11       0.3556
      3 N          -0.0123   -7.1226   -1.6506 N.2     1  LIG11      -0.0687
      4 C          -1.0018   -6.3710   -3.7962 C.3     1  LIG11       0.0059
      5 C           0.1958   -4.7699   -2.3594 C.3     1  LIG11       0.0059
      6 N          -1.7277   -6.4846   -0.3410 N.am    1  LIG11      -0.1529
      7 O          -2.9477   -5.1707   -1.8233 O.2     1  LIG11      -0.2422
      8 C          -0.6642   -7.2886   -0.5421 C.2     1  LIG11       0.2916
      9 C          -0.3977   -5.2352   -4.6168 C.3     1  LIG11      -0.0481
     10 C           0.7652   -4.7483   -3.7693 C.3     1  LIG11      -0.0481
     11 C          -2.7221   -6.5552    0.7125 C.3     1  LIG11       0.1137
     12 C          -0.2704   -8.3332    0.4803 C.3     1  LIG11       0.0509
     13 C          -2.9207   -5.2468    1.4392 C.ar    1  LIG11      -0.0073
     14 C           0.8515   -9.2766    0.0412 C.3     1  LIG11      -0.0424
     15 C          -2.0532   -4.8398    2.4600 C.ar    1  LIG11      -0.0491
     16 C          -3.9890   -4.4142    1.1082 C.ar    1  LIG11      -0.0544
     17 C           2.2381   -8.6307    0.0798 C.3     1  LIG11      -0.0554
     18 C          -2.3102   -3.6811    3.2305 C.ar    1  LIG11      -0.0138
     19 C          -4.2457   -3.2644    1.8540 C.ar    1  LIG11      -0.0533
     20 C           3.3173   -9.6205   -0.3353 C.3     1  LIG11      -0.0653
     21 C          -3.4839   -2.9277    2.9837 C.ar    1  LIG11      -0.0106
     22 C          -1.2726   -3.2807    4.2581 C.3     1  LIG11       0.0732
     23 C          -3.9475   -1.8162    3.8427 C.ar    1  LIG11       0.0091
     24 O          -1.7527   -3.2743    5.5962 O.3     1  LIG11      -0.3754
     25 C          -5.1213   -1.8391    4.6336 C.ar    1  LIG11       0.1162
     26 C          -3.1827   -0.6300    3.8721 C.ar    1  LIG11      -0.0521
     27 C          -1.5586   -4.4987    6.2942 C.3     1  LIG11       0.0453
     28 S          -6.2602   -3.2151    4.7224 S.O2    1  LIG11       0.0741
     29 C          -5.4530   -0.7425    5.4586 C.ar    1  LIG11      -0.0345
     30 C          -3.5193    0.4529    4.6904 C.ar    1  LIG11      -0.0611
     31 C          -2.7740   -5.3944    6.1686 C.3     1  LIG11      -0.0416
     32 N          -7.5628   -2.6627    3.7836 N.pl3   1  LIG11      -0.1965
     33 O          -5.7093   -4.4244    4.1540 O.2     1  LIG11      -0.1499
     34 O          -6.7916   -3.2512    6.0726 O.2     1  LIG11      -0.1499
     35 C          -4.6507    0.3936    5.4911 C.ar    1  LIG11      -0.0599
     36 C          -7.7368   -3.1554    2.4954 C.ar    1  LIG11       0.1837
     37 C          -8.1570   -4.4542    2.1101 C.ar    1  LIG11       0.0342
     38 N          -7.5960   -2.3523    1.4389 N.ar    1  LIG11      -0.0614
     39 C          -8.1176   -4.4072    0.7312 C.ar    1  LIG11       0.1390
     40 C          -8.4999   -5.6136    2.9619 C.3     1  LIG11      -0.0330
     41 O          -7.7946   -3.1503    0.3300 O.2     1  LIG11      -0.3578
     42 C          -8.3214   -5.3981   -0.3425 C.3     1  LIG11      -0.0034
@<TRIPOS>BOND
     1     1     5    1
     2     1     4    1
     3     1     2    1
     4     1     3    1
     5     2     6   am
     6     2     7    2
     7     3     8    2
     8     4     9    1
     9     5    10    1
    10     6     8    1
    11     6    11    1
    12     8    12    1
    13     9    10    1
    14    11    13    1
    15    12    14    1
    16    13    15   ar
    17    13    16   ar
    18    14    17    1
    19    15    18   ar
    20    16    19   ar
    21    17    20    1
    22    18    21   ar
    23    18    22    1
    24    19    21   ar
    25    21    23    1
    26    22    24    1
    27    23    26   ar
    28    23    25   ar
    29    24    27    1
    30    25    29   ar
    31    25    28    1
    32    26    30   ar
    33    27    31    1
    34    28    34    2
    35    28    33    2
    36    28    32    1
    37    29    35   ar
    38    30    35   ar
    39    32    36    1
    40    36    37   ar
    41    36    38   ar
    42    37    39   ar
    43    37    40    1
    44    38    41   ar
    45    39    41   ar
    46    39    42    1
