@<TRIPOS>MOLECULE
BOSENTAN_50CONFORMERS.pdb
 39 42 0 0 0
SMALL
GASTEIGER

@<TRIPOS>ATOM
      1  S1        -1.4030   -1.0460    3.0410 S.O2    1  LGD1        0.0943
      2  O2        -2.5180   -0.5620    3.9530 O.2     1  LGD1       -0.1483
      3  O3        -0.8970   -2.4240    3.1160 O.2     1  LGD1       -0.1483
      4  O4        -2.2830   -2.9550    0.0190 O.3     1  LGD1       -0.4427
      5  O5        -0.5990   -3.7730   -2.1070 O.3     1  LGD1       -0.4552
      6  O6        -4.4500   -4.5940   -1.5170 O.3     1  LGD1       -0.4684
      7  O7         0.1070   -5.4600   -4.4110 O.3     1  LGD1       -0.2162
      8  N8        -1.7590   -0.7320    1.4200 N.pl3   1  LGD1       -0.0737
      9  N9         0.3320   -0.5080    0.3380 N.ar    1  LGD1       -0.2027
     10  N10        1.0030   -2.1400   -1.3040 N.ar    1  LGD1       -0.1866
     11  N11        3.6250   -0.4700   -0.4180 N.ar    1  LGD1       -0.2224
     12  N12        1.9950    1.1120   -1.3040 N.ar    1  LGD1       -0.2224
     13  C13        3.5530    2.5430    3.7900 C.3     1  LGD1        0.0189
     14  C14        2.3340    1.6020    3.6480 C.ar    1  LGD1       -0.0227
     15  C15        3.9120    3.2710    2.4240 C.3     1  LGD1        0.0044
     16  C16        4.8120    1.7570    4.2390 C.3     1  LGD1        0.0044
     17  C17        3.2090    3.6590    4.8360 C.3     1  LGD1        0.0044
     18  C18        2.3300    0.2720    4.1100 C.ar    1  LGD1       -0.0029
     19  C19        1.1900    2.1150    3.0900 C.ar    1  LGD1       -0.0029
     20  C20       -0.0050    0.0140    3.4090 C.ar    1  LGD1        0.1271
     21  C21        1.1840   -0.5030    3.9460 C.ar    1  LGD1        0.0199
     22  C22        0.0400    1.3120    2.9100 C.ar    1  LGD1        0.0199
     23  C23       -0.8540   -1.1230    0.4720 C.ar    1  LGD1        0.2125
     24  C24       -1.0940   -2.2830   -0.2580 C.ar    1  LGD1        0.2327
     25  C25       -0.2460   -2.6690   -1.2460 C.ar    1  LGD1        0.2651
     26  C26        1.1980   -1.0490   -0.5090 C.ar    1  LGD1        0.2028
     27  C27       -2.3370   -4.3410   -0.0600 C.ar    1  LGD1        0.1793
     28  C28        2.3630   -0.0550   -0.7360 C.ar    1  LGD1        0.1990
     29  C29        0.4120   -4.7490   -2.1610 C.3     1  LGD1        0.2426
     30  C30       -3.3970   -5.0530   -0.7130 C.ar    1  LGD1        0.1730
     31  C31       -1.3830   -4.9930    0.7130 C.ar    1  LGD1        0.0406
     32  C32       -3.3480   -6.4360   -0.6120 C.ar    1  LGD1        0.0401
     33  C33       -0.2270   -5.8020   -3.0820 C.3     1  LGD1        0.2292
     34  C34       -1.3960   -6.3770    0.8210 C.ar    1  LGD1        0.0033
     35  C35       -2.3410   -7.1130    0.0340 C.ar    1  LGD1        0.0033
     36  C36        4.6080    0.4050   -0.5990 C.ar    1  LGD1        0.1023
     37  C37        3.0000    1.8910   -1.7340 C.ar    1  LGD1        0.1023
     38  C38        4.2740    1.5430   -1.3250 C.ar    1  LGD1        0.0414
     39  C39       -3.9390   -3.7430   -2.5960 C.3     1  LGD1        0.2526
@<TRIPOS>BOND
     1    33     7    1
     2    33    29    1
     3     5    29    1
     4     5    25    1
     5    10    25   ar
     6    10    26   ar
     7    36    11   ar
     8    36    38   ar
     9    11    28   ar
    10    25    24   ar
    11    38    37   ar
    12    34    31   ar
    13    34    35   ar
    14    28    26    1
    15    28    12   ar
    16    26     9   ar
    17    31    27   ar
    18    37    12   ar
    19    24     4    1
    20    24    23   ar
    21     4    27    1
    22    27    30   ar
    23    35    32   ar
    24    15    13    1
    25     9    23   ar
    26    23     8    1
    27    30    32   ar
    28    30     6    1
    29     6    39    1
    30     8     1    1
    31    18    14   ar
    32    18    21   ar
    33    13    14    1
    34    13    17    1
    35    13    16    1
    36    14    19   ar
    37    21    20   ar
    38    20     1    1
    39    20    22   ar
    40    19    22   ar
    41     1     2    2
    42     1     3    2
@<TRIPOS>MOLECULE
9912992
 34 37 0 0 0
SMALL
GASTEIGER

@<TRIPOS>ATOM
      1 S          -1.1084   -1.0751    2.9141 S.O2    1  LIG11       0.0908
      2 O          -2.3220   -2.9523    0.1514 O.3     1  LIG11      -0.4435
      3 O          -0.7920   -3.8036   -2.1432 O.3     1  LIG11      -0.4771
      4 O          -2.3623   -1.1075    3.6387 O.2     1  LIG11      -0.1484
      5 O          -0.2657   -2.2549    2.8421 O.2     1  LIG11      -0.1484
      6 O          -4.5952   -4.1011   -0.5926 O.3     1  LIG11      -0.4914
      7 N          -1.5172   -0.5827    1.3475 N.pl3   1  LIG11      -0.1950
      8 N           0.3792   -0.5217    0.0072 N.ar    1  LIG11      -0.2073
      9 N           0.7338   -2.1022   -1.7358 N.ar    1  LIG11      -0.1899
     10 N          -0.7046    1.0873    4.4399 N.ar    1  LIG11      -0.2351
     11 N           4.7943    0.8427   -2.1548 N.ar    1  LIG11      -0.2632
     12 C          -0.7602   -1.1761    0.3014 C.ar    1  LIG11       0.1882
     13 C          -1.1813   -2.3460   -0.3032 C.ar    1  LIG11       0.2307
     14 C          -0.1082    0.2817    3.5235 C.ar    1  LIG11       0.1969
     15 C          -0.3879   -2.7457   -1.3582 C.ar    1  LIG11       0.2638
     16 C           1.0872   -1.0206   -1.0221 C.ar    1  LIG11       0.1659
     17 C           1.2026    0.4149    3.0971 C.ar    1  LIG11      -0.0160
     18 C           2.3459   -0.3593   -1.4084 C.ar    1  LIG11       0.0222
     19 C          -2.3723   -4.3345    0.1612 C.ar    1  LIG11       0.1702
     20 C           1.3767    2.3284    4.5527 C.ar    1  LIG11      -0.0322
     21 C           1.9508    1.4684    3.6133 C.ar    1  LIG11      -0.0541
     22 C           0.0593    2.0834    4.9394 C.ar    1  LIG11       0.0327
     23 C          -3.5641   -4.9434   -0.2626 C.ar    1  LIG11       0.1621
     24 C          -1.2959   -5.1173    0.6022 C.ar    1  LIG11      -0.0157
     25 C           2.1551    3.4539    5.1597 C.3     1  LIG11      -0.0383
     26 C           2.8861   -0.5258   -2.6939 C.ar    1  LIG11      -0.0329
     27 C           3.0701    0.4409   -0.5155 C.ar    1  LIG11      -0.0329
     28 C          -3.6190   -6.3385   -0.3492 C.ar    1  LIG11      -0.0163
     29 C          -1.3623   -6.5065    0.5073 C.ar    1  LIG11      -0.0581
     30 C          -2.5149   -7.1145    0.0182 C.ar    1  LIG11      -0.0581
     31 C           4.0875    0.0863   -3.0161 C.ar    1  LIG11       0.0282
     32 C           4.2702    1.0032   -0.9240 C.ar    1  LIG11       0.0282
     33 C           0.3087   -4.5803   -2.6061 C.3     1  LIG11       0.0805
     34 C          -5.8850   -4.6891   -0.7084 C.3     1  LIG11       0.0790
@<TRIPOS>BOND
     1     1     4    2
     2     1     5    2
     3     1     7    1
     4     1    14    1
     5     2    13    1
     6     2    19    1
     7     3    15    1
     8     3    33    1
     9     6    23    1
    10     6    34    1
    11     7    12    1
    12     8    12   ar
    13     8    16   ar
    14     9    15   ar
    15     9    16   ar
    16    10    14   ar
    17    10    22   ar
    18    11    31   ar
    19    11    32   ar
    20    12    13   ar
    21    13    15   ar
    22    14    17   ar
    23    16    18    1
    24    17    21   ar
    25    18    26   ar
    26    18    27   ar
    27    19    23   ar
    28    19    24   ar
    29    20    21   ar
    30    20    22   ar
    31    20    25    1
    32    23    28   ar
    33    24    29   ar
    34    26    31   ar
    35    27    32   ar
    36    28    30   ar
    37    29    30   ar
