@<TRIPOS>MOLECULE
BOSENTAN_50CONFORMERS.pdb
 39 42 0 0 0
SMALL
GASTEIGER

@<TRIPOS>ATOM
      1  S1        -2.2100    0.8910    1.6560 S.O2    1  LGD1        0.0943
      2  O2        -3.6490    0.8670    2.0450 O.2     1  LGD1       -0.1483
      3  O3        -1.2600    1.5580    2.5080 O.2     1  LGD1       -0.1483
      4  O4        -2.3850   -2.9130   -0.0870 O.3     1  LGD1       -0.4427
      5  O5        -0.5280   -3.6880   -2.1330 O.3     1  LGD1       -0.4552
      6  O6        -2.6800   -1.2320   -2.4200 O.3     1  LGD1       -0.4684
      7  O7         0.5730   -5.7640   -3.9500 O.3     1  LGD1       -0.2162
      8  N8        -1.7610   -0.7060    1.4300 N.pl3   1  LGD1       -0.0737
      9  N9         0.3420   -0.5020    0.3260 N.ar    1  LGD1       -0.2027
     10  N10        0.9800   -2.1490   -1.2950 N.ar    1  LGD1       -0.1866
     11  N11        2.7090    0.3860   -1.7460 N.ar    1  LGD1       -0.2224
     12  N12        3.3510   -0.5520    0.3280 N.ar    1  LGD1       -0.2224
     13  C13       -1.3880    3.3940   -3.9040 C.3     1  LGD1        0.0189
     14  C14       -1.6690    2.8260   -2.4750 C.ar    1  LGD1       -0.0227
     15  C15       -2.3300    2.9240   -5.0310 C.3     1  LGD1        0.0044
     16  C16        0.0230    3.1680   -4.4080 C.3     1  LGD1        0.0044
     17  C17       -1.6750    4.9520   -3.8190 C.3     1  LGD1        0.0044
     18  C18       -0.6570    2.7740   -1.5080 C.ar    1  LGD1       -0.0029
     19  C19       -2.8800    2.1980   -2.1100 C.ar    1  LGD1       -0.0029
     20  C20       -2.0200    1.6530    0.0630 C.ar    1  LGD1        0.1271
     21  C21       -0.8150    2.2360   -0.2570 C.ar    1  LGD1        0.0199
     22  C22       -3.0480    1.5460   -0.8880 C.ar    1  LGD1        0.0199
     23  C23       -0.8250   -1.1310    0.5010 C.ar    1  LGD1        0.2125
     24  C24       -1.1650   -2.2800   -0.2740 C.ar    1  LGD1        0.2327
     25  C25       -0.2430   -2.7600   -1.1940 C.ar    1  LGD1        0.2651
     26  C26        1.1830   -1.0600   -0.5540 C.ar    1  LGD1        0.2028
     27  C27       -3.1620   -3.2130   -1.1610 C.ar    1  LGD1        0.1793
     28  C28        2.4780   -0.2990   -0.6400 C.ar    1  LGD1        0.1990
     29  C29       -0.3750   -5.1270   -1.7850 C.3     1  LGD1        0.2426
     30  C30       -3.2680   -2.4770   -2.3200 C.ar    1  LGD1        0.1730
     31  C31       -3.9780   -4.3280   -1.0640 C.ar    1  LGD1        0.0406
     32  C32       -4.1070   -2.8440   -3.3820 C.ar    1  LGD1        0.0401
     33  C33       -0.4930   -6.0060   -3.0100 C.3     1  LGD1        0.2292
     34  C34       -4.7580   -4.7850   -2.1190 C.ar    1  LGD1        0.0033
     35  C35       -4.8170   -4.0590   -3.2820 C.ar    1  LGD1        0.0033
     36  C36        3.9930    0.9670   -1.8590 C.ar    1  LGD1        0.1023
     37  C37        4.6300   -0.0210    0.2350 C.ar    1  LGD1        0.1023
     38  C38        4.8980    0.7820   -0.8340 C.ar    1  LGD1        0.0414
     39  C39       -1.8120   -0.9830   -3.6390 C.3     1  LGD1        0.2526
@<TRIPOS>BOND
     1    33     7    1
     2    33    29    1
     3     5    29    1
     4     5    25    1
     5    10    25   ar
     6    10    26   ar
     7    36    11   ar
     8    36    38   ar
     9    11    28   ar
    10    25    24   ar
    11    38    37   ar
    12    34    31   ar
    13    34    35   ar
    14    28    26    1
    15    28    12   ar
    16    26     9   ar
    17    31    27   ar
    18    37    12   ar
    19    24     4    1
    20    24    23   ar
    21     4    27    1
    22    27    30   ar
    23    35    32   ar
    24    15    13    1
    25     9    23   ar
    26    23     8    1
    27    30    32   ar
    28    30     6    1
    29     6    39    1
    30     8     1    1
    31    18    14   ar
    32    18    21   ar
    33    13    14    1
    34    13    17    1
    35    13    16    1
    36    14    19   ar
    37    21    20   ar
    38    20     1    1
    39    20    22   ar
    40    19    22   ar
    41     1     2    2
    42     1     3    2
@<TRIPOS>MOLECULE
159594
 37 40 0 0 0
SMALL
GASTEIGER

@<TRIPOS>ATOM
      1 O          -7.0040    0.6881   -1.8802 O.co2   1  LIG11      -0.5493
      2 O          -6.0593    0.5177    0.1908 O.co2   1  LIG11      -0.5493
      3 O          -1.7507   -4.7317   -3.3485 O.3     1  LIG11      -0.4526
      4 O          -5.4007    2.5162   -4.8291 O.2     1  LIG11      -0.2697
      5 O          -3.0578   -6.3319   -2.1017 O.3     1  LIG11      -0.4526
      6 O          -0.3414    3.5727    1.0715 O.3     1  LIG11      -0.4951
      7 N          -3.7228    0.4736   -3.6323 N.3     1  LIG11       0.2481
      8 N          -3.6956    3.6464   -5.8638 N.am    1  LIG11      -0.2971
      9 C          -4.8629   -0.2390   -1.6686 C.3     1  LIG11       0.0574
     10 C          -5.2541   -1.1732   -2.8256 C.3     1  LIG11       0.0378
     11 C          -4.2067    1.0031   -2.2747 C.3     1  LIG11       0.0143
     12 C          -4.8697   -0.3979   -4.0854 C.3     1  LIG11      -0.0230
     13 C          -4.6328   -2.5543   -2.6534 C.ar    1  LIG11      -0.0347
     14 C          -3.1012    1.6069   -1.4103 C.ar    1  LIG11       0.0011
     15 C          -3.2312    1.5085   -4.6240 C.3     1  LIG11       0.0468
     16 C          -6.1074    0.3697   -1.0545 C.2     1  LIG11       0.0513
     17 C          -3.3825   -2.9309   -3.1666 C.ar    1  LIG11      -0.0125
     18 C          -4.2031    2.5913   -5.0976 C.2     1  LIG11       0.2608
     19 C          -5.3772   -3.5051   -1.9049 C.ar    1  LIG11      -0.0544
     20 C          -1.7298    1.3415   -1.5612 C.ar    1  LIG11      -0.0498
     21 C          -3.4788    2.4933   -0.3878 C.ar    1  LIG11      -0.0498
     22 C          -2.9377   -4.2172   -2.9251 C.ar    1  LIG11       0.1665
     23 C          -4.9062   -4.8032   -1.6885 C.ar    1  LIG11      -0.0159
     24 C          -3.6784   -5.1284   -2.2121 C.ar    1  LIG11       0.1662
     25 C          -0.7724    1.9869   -0.7613 C.ar    1  LIG11      -0.0195
     26 C          -2.5256    3.1163    0.4223 C.ar    1  LIG11      -0.0195
     27 C          -4.6866    4.6072   -6.3793 C.3     1  LIG11       0.0148
     28 C          -2.3380    3.7378   -6.4212 C.3     1  LIG11       0.0148
     29 C          -1.1667    2.8833    0.2293 C.ar    1  LIG11       0.1201
     30 C          -5.5091    4.0809   -7.5665 C.3     1  LIG11      -0.0374
     31 C          -1.1676    3.8662   -5.4364 C.3     1  LIG11      -0.0374
     32 C          -1.8285   -6.0692   -2.8058 C.3     1  LIG11       0.2332
     33 C          -4.7349    3.8491   -8.8660 C.3     1  LIG11      -0.0545
     34 C          -1.4033    4.7350   -4.2013 C.3     1  LIG11      -0.0545
     35 C          -4.2093    5.1293   -9.4956 C.3     1  LIG11      -0.0652
     36 C          -1.5522    6.2112   -4.5234 C.3     1  LIG11      -0.0652
     37 C           1.0567    3.4689    0.8410 C.3     1  LIG11       0.0788
@<TRIPOS>BOND
     1     1    16   ar
     2     2    16   ar
     3     3    22    1
     4     3    32    1
     5     4    18    2
     6     5    24    1
     7     5    32    1
     8     6    29    1
     9     6    37    1
    10     7    11    1
    11     7    12    1
    12     7    15    1
    13     8    18   am
    14     8    27    1
    15     8    28    1
    16     9    10    1
    17     9    11    1
    18     9    16    1
    19    10    12    1
    20    10    13    1
    21    11    14    1
    22    13    17   ar
    23    13    19   ar
    24    14    20   ar
    25    14    21   ar
    26    15    18    1
    27    17    22   ar
    28    19    23   ar
    29    20    25   ar
    30    21    26   ar
    31    22    24   ar
    32    23    24   ar
    33    25    29   ar
    34    26    29   ar
    35    27    30    1
    36    28    31    1
    37    30    33    1
    38    31    34    1
    39    33    35    1
    40    34    36    1
