@<TRIPOS>MOLECULE
BOSENTAN_50CONFORMERS.pdb
 39 42 0 0 0
SMALL
GASTEIGER

@<TRIPOS>ATOM
      1  S1        -2.2100    0.8910    1.6560 S.O2    1  LGD1        0.0943
      2  O2        -3.6490    0.8670    2.0450 O.2     1  LGD1       -0.1483
      3  O3        -1.2600    1.5580    2.5080 O.2     1  LGD1       -0.1483
      4  O4        -2.3850   -2.9130   -0.0870 O.3     1  LGD1       -0.4427
      5  O5        -0.5280   -3.6880   -2.1330 O.3     1  LGD1       -0.4552
      6  O6        -2.6800   -1.2320   -2.4200 O.3     1  LGD1       -0.4684
      7  O7         0.5730   -5.7640   -3.9500 O.3     1  LGD1       -0.2162
      8  N8        -1.7610   -0.7060    1.4300 N.pl3   1  LGD1       -0.0737
      9  N9         0.3420   -0.5020    0.3260 N.ar    1  LGD1       -0.2027
     10  N10        0.9800   -2.1490   -1.2950 N.ar    1  LGD1       -0.1866
     11  N11        2.7090    0.3860   -1.7460 N.ar    1  LGD1       -0.2224
     12  N12        3.3510   -0.5520    0.3280 N.ar    1  LGD1       -0.2224
     13  C13       -1.3880    3.3940   -3.9040 C.3     1  LGD1        0.0189
     14  C14       -1.6690    2.8260   -2.4750 C.ar    1  LGD1       -0.0227
     15  C15       -2.3300    2.9240   -5.0310 C.3     1  LGD1        0.0044
     16  C16        0.0230    3.1680   -4.4080 C.3     1  LGD1        0.0044
     17  C17       -1.6750    4.9520   -3.8190 C.3     1  LGD1        0.0044
     18  C18       -0.6570    2.7740   -1.5080 C.ar    1  LGD1       -0.0029
     19  C19       -2.8800    2.1980   -2.1100 C.ar    1  LGD1       -0.0029
     20  C20       -2.0200    1.6530    0.0630 C.ar    1  LGD1        0.1271
     21  C21       -0.8150    2.2360   -0.2570 C.ar    1  LGD1        0.0199
     22  C22       -3.0480    1.5460   -0.8880 C.ar    1  LGD1        0.0199
     23  C23       -0.8250   -1.1310    0.5010 C.ar    1  LGD1        0.2125
     24  C24       -1.1650   -2.2800   -0.2740 C.ar    1  LGD1        0.2327
     25  C25       -0.2430   -2.7600   -1.1940 C.ar    1  LGD1        0.2651
     26  C26        1.1830   -1.0600   -0.5540 C.ar    1  LGD1        0.2028
     27  C27       -3.1620   -3.2130   -1.1610 C.ar    1  LGD1        0.1793
     28  C28        2.4780   -0.2990   -0.6400 C.ar    1  LGD1        0.1990
     29  C29       -0.3750   -5.1270   -1.7850 C.3     1  LGD1        0.2426
     30  C30       -3.2680   -2.4770   -2.3200 C.ar    1  LGD1        0.1730
     31  C31       -3.9780   -4.3280   -1.0640 C.ar    1  LGD1        0.0406
     32  C32       -4.1070   -2.8440   -3.3820 C.ar    1  LGD1        0.0401
     33  C33       -0.4930   -6.0060   -3.0100 C.3     1  LGD1        0.2292
     34  C34       -4.7580   -4.7850   -2.1190 C.ar    1  LGD1        0.0033
     35  C35       -4.8170   -4.0590   -3.2820 C.ar    1  LGD1        0.0033
     36  C36        3.9930    0.9670   -1.8590 C.ar    1  LGD1        0.1023
     37  C37        4.6300   -0.0210    0.2350 C.ar    1  LGD1        0.1023
     38  C38        4.8980    0.7820   -0.8340 C.ar    1  LGD1        0.0414
     39  C39       -1.8120   -0.9830   -3.6390 C.3     1  LGD1        0.2526
@<TRIPOS>BOND
     1    33     7    1
     2    33    29    1
     3     5    29    1
     4     5    25    1
     5    10    25   ar
     6    10    26   ar
     7    36    11   ar
     8    36    38   ar
     9    11    28   ar
    10    25    24   ar
    11    38    37   ar
    12    34    31   ar
    13    34    35   ar
    14    28    26    1
    15    28    12   ar
    16    26     9   ar
    17    31    27   ar
    18    37    12   ar
    19    24     4    1
    20    24    23   ar
    21     4    27    1
    22    27    30   ar
    23    35    32   ar
    24    15    13    1
    25     9    23   ar
    26    23     8    1
    27    30    32   ar
    28    30     6    1
    29     6    39    1
    30     8     1    1
    31    18    14   ar
    32    18    21   ar
    33    13    14    1
    34    13    17    1
    35    13    16    1
    36    14    19   ar
    37    21    20   ar
    38    20     1    1
    39    20    22   ar
    40    19    22   ar
    41     1     2    2
    42     1     3    2
@<TRIPOS>MOLECULE
23693553
 46 48 0 0 0
SMALL
GASTEIGER

@<TRIPOS>ATOM
      1 O          -0.6488    3.8342   -8.5404 O.2     1  LIG11      -0.2526
      2 O          -2.2007    0.0461   -9.9790 O.2     1  LIG11      -0.2731
      3 O          -1.0556   -0.2130   -6.0617 O.2     1  LIG11      -0.2689
      4 O          -4.5426   -2.8186   -9.8464 O.co2   1  LIG11      -0.5479
      5 OXT        -4.5535   -1.1092   -8.3133 O.co2   1  LIG11      -0.5479
      6 O          -6.5893   -6.6514   -5.0343 O.3     1  LIG11      -0.4515
      7 O          -6.2475   -7.0241   -2.7752 O.2     1  LIG11      -0.2227
      8 N          -1.1270    3.8733   -6.2851 N.am    1  LIG11      -0.2801
      9 N          -0.7924    1.8611   -7.4433 N.am    1  LIG11      -0.2879
     10 N          -1.8266   -1.1424   -8.0254 N.am    1  LIG11      -0.2273
     11 N          -1.7616   -3.4209   -5.7164 N.3     1  LIG11       0.2276
     12 N          -5.3870   -5.1542   -3.8203 N.ar    1  LIG11      -0.2526
     13 C          -1.5397    3.1811   -5.0464 C.3     1  LIG11       0.0249
     14 C          -1.0497    5.3498   -6.3232 C.3     1  LIG11       0.0249
     15 C          -1.4142    4.0158   -3.7638 C.3     1  LIG11      -0.0344
     16 C          -0.7722    6.0368   -4.9737 C.3     1  LIG11      -0.0344
     17 C          -0.3314    5.0682   -3.8929 C.3     1  LIG11      -0.0497
     18 CA         -0.5062    1.0214   -8.5930 C.3     1  LIG11       0.1019
     19 C           2.1619    1.1487   -8.6474 C.3     1  LIG11      -0.0356
     20 C           0.8619    0.3050   -8.5092 C.3     1  LIG11      -0.0210
     21 C          -0.8654    3.2233   -7.4963 C.2     1  LIG11       0.3033
     22 C          -2.9611    2.6190   -5.1555 C.3     1  LIG11      -0.0464
     23 C          -2.2846    5.9696   -6.9872 C.3     1  LIG11      -0.0464
     24 C          -1.6114   -0.0387   -8.8946 C.2     1  LIG11       0.2429
     25 C           2.1539    2.0088   -9.9205 C.3     1  LIG11      -0.0600
     26 C           2.4040    2.0426   -7.4209 C.3     1  LIG11      -0.0600
     27 C           3.3449    0.1597   -8.7449 C.3     1  LIG11      -0.0600
     28 CA         -2.5430   -2.2706   -8.6910 C.3     1  LIG11       0.0730
     29 C          -1.6402   -3.1400   -9.5868 C.3     1  LIG11      -0.0286
     30 C          -1.7979   -1.0252   -6.6372 C.2     1  LIG11       0.2708
     31 CA         -2.4441   -2.0634   -5.6702 C.3     1  LIG11       0.0579
     32 C          -1.2111   -2.5700  -10.9359 C.3     1  LIG11      -0.0513
     33 C          -3.9679   -2.1949   -5.5751 C.3     1  LIG11       0.0261
     34 C          -4.0202   -1.9791   -9.0681 C.2     1  LIG11       0.0626
     35 C          -4.4159   -3.2524   -4.5970 C.ar    1  LIG11      -0.0158
     36 C          -0.3743   -3.5967  -11.7064 C.3     1  LIG11      -0.0558
     37 C          -4.1475   -3.3539   -3.2008 C.ar    1  LIG11       0.0038
     38 C          -5.1742   -4.3531   -4.9328 C.ar    1  LIG11       0.0202
     39 C          -4.7100   -4.5575   -2.7493 C.ar    1  LIG11       0.0598
     40 C           0.1287   -3.0360  -13.0257 C.3     1  LIG11      -0.0653
     41 C          -3.4539   -2.5402   -2.2776 C.ar    1  LIG11      -0.0523
     42 C          -4.5599   -4.9746   -1.4128 C.ar    1  LIG11      -0.0371
     43 C          -3.3021   -2.9582   -0.9526 C.ar    1  LIG11      -0.0611
     44 C          -6.1207   -6.3614   -3.7928 C.2     1  LIG11       0.4196
     45 C          -3.8431   -4.1643   -0.5300 C.ar    1  LIG11      -0.0598
     46 C          -7.3290   -7.8697   -5.1060 C.3     1  LIG11       0.0835
@<TRIPOS>BOND
     1     1    21    2
     2     2    24    2
     3     3    30    2
     4     4    34   ar
     5     5    34   ar
     6     6    44    1
     7     6    46    1
     8     7    44    2
     9     8    13    1
    10     8    14    1
    11     9    21   am
    12    10    24   am
    13    10    30   am
    14    12    39   ar
    15    12    38   ar
    16    12    44   am
    17    13    15    1
    18    13    22    1
    19    14    16    1
    20    14    23    1
    21    15    17    1
    22    16    17    1
    23    18     9    1
    24    18    24    1
    25    18    20    1
    26    19    20    1
    27    19    27    1
    28    19    26    1
    29    19    25    1
    30    21     8   am
    31    28    34    1
    32    28    29    1
    33    28    10    1
    34    29    32    1
    35    31    33    1
    36    31    11    1
    37    31    30    1
    38    32    36    1
    39    33    35    1
    40    35    38   ar
    41    35    37   ar
    42    36    40    1
    43    37    39   ar
    44    37    41   ar
    45    39    42   ar
    46    41    43   ar
    47    42    45   ar
    48    43    45   ar
