@<TRIPOS>MOLECULE
BOSENTAN_50CONFORMERS.pdb
 39 42 0 0 0
SMALL
GASTEIGER

@<TRIPOS>ATOM
      1  S1        -1.6410    0.6860    2.4560 S.O2    1  LGD1        0.0943
      2  O2        -1.3520    1.8340    1.5570 O.2     1  LGD1       -0.1483
      3  O3        -2.8280    0.6310    3.3500 O.2     1  LGD1       -0.1483
      4  O4        -2.5220   -2.6610   -0.2930 O.3     1  LGD1       -0.4427
      5  O5        -0.5450   -3.8450   -2.0380 O.3     1  LGD1       -0.4552
      6  O6        -5.1660   -2.9260    0.7860 O.3     1  LGD1       -0.4684
      7  O7         0.0380   -6.7410   -2.8450 O.3     1  LGD1       -0.2162
      8  N8        -1.7810   -0.7390    1.4900 N.pl3   1  LGD1       -0.0737
      9  N9         0.3880   -0.5790    0.3990 N.ar    1  LGD1       -0.2027
     10  N10        1.0090   -2.0750   -1.3690 N.ar    1  LGD1       -0.1866
     11  N11        3.4500   -0.9450   -1.4270 N.ar    1  LGD1       -0.2224
     12  N12        2.6080    0.9490   -0.1290 N.ar    1  LGD1       -0.2224
     13  C13        3.0060   -0.4140    6.2670 C.3     1  LGD1        0.0189
     14  C14        1.7960   -0.2250    5.3460 C.ar    1  LGD1       -0.0227
     15  C15        3.6020    0.8790    6.7690 C.3     1  LGD1        0.0044
     16  C16        4.0990   -1.2220    5.5180 C.3     1  LGD1        0.0044
     17  C17        2.7020   -1.3170    7.5110 C.3     1  LGD1        0.0044
     18  C18        0.5860   -0.9460    5.4420 C.ar    1  LGD1       -0.0029
     19  C19        1.9640    0.7150    4.2860 C.ar    1  LGD1       -0.0029
     20  C20       -0.2480    0.3390    3.5910 C.ar    1  LGD1        0.1271
     21  C21       -0.4380   -0.6670    4.5460 C.ar    1  LGD1        0.0199
     22  C22        0.9140    1.0760    3.4700 C.ar    1  LGD1        0.0199
     23  C23       -0.8660   -1.1160    0.4880 C.ar    1  LGD1        0.2125
     24  C24       -1.2140   -2.1850   -0.3940 C.ar    1  LGD1        0.2327
     25  C25       -0.2410   -2.7090   -1.2100 C.ar    1  LGD1        0.2651
     26  C26        1.2320   -1.0290   -0.5570 C.ar    1  LGD1        0.2028
     27  C27       -3.6100   -1.9910   -0.8550 C.ar    1  LGD1        0.1793
     28  C28        2.5120   -0.2650   -0.7460 C.ar    1  LGD1        0.1990
     29  C29        0.5500   -4.2720   -2.9720 C.3     1  LGD1        0.2426
     30  C30       -4.8960   -2.1580   -0.3670 C.ar    1  LGD1        0.1730
     31  C31       -3.4260   -0.9480   -1.7950 C.ar    1  LGD1        0.0406
     32  C32       -5.9660   -1.4110   -0.8700 C.ar    1  LGD1        0.0401
     33  C33        0.2550   -5.6500   -3.6940 C.3     1  LGD1        0.2292
     34  C34       -4.4950   -0.1990   -2.2740 C.ar    1  LGD1        0.0033
     35  C35       -5.7700   -0.4310   -1.8670 C.ar    1  LGD1        0.0033
     36  C36        4.6630   -0.3400   -1.5250 C.ar    1  LGD1        0.1023
     37  C37        3.8560    1.4910   -0.1510 C.ar    1  LGD1        0.1023
     38  C38        4.8320    0.8620   -0.8950 C.ar    1  LGD1        0.0414
     39  C39       -5.6290   -4.2950    0.5660 C.3     1  LGD1        0.2526
@<TRIPOS>BOND
     1    33     7    1
     2    33    29    1
     3     5    29    1
     4     5    25    1
     5    10    25   ar
     6    10    26   ar
     7    36    11   ar
     8    36    38   ar
     9    11    28   ar
    10    25    24   ar
    11    38    37   ar
    12    34    31   ar
    13    34    35   ar
    14    28    26    1
    15    28    12   ar
    16    26     9   ar
    17    31    27   ar
    18    37    12   ar
    19    24     4    1
    20    24    23   ar
    21     4    27    1
    22    27    30   ar
    23    35    32   ar
    24    15    13    1
    25     9    23   ar
    26    23     8    1
    27    30    32   ar
    28    30     6    1
    29     6    39    1
    30     8     1    1
    31    18    14   ar
    32    18    21   ar
    33    13    14    1
    34    13    17    1
    35    13    16    1
    36    14    19   ar
    37    21    20   ar
    38    20     1    1
    39    20    22   ar
    40    19    22   ar
    41     1     2    2
    42     1     3    2
@<TRIPOS>MOLECULE
HTS1204-03362316-01
 44 47 0 0 0
SMALL
USER_CHARGES

@<TRIPOS>ATOM
      1 C1         -0.6587   -1.3002    4.8079 C.ar    1  UNK11      -0.0199
      2 N1          1.0947   -1.0273    6.1589 N.ar    1  UNK11      -0.3494
      3 C2          1.5361   -6.4357    5.0131 C.2     1  UNK11       0.3028
      4 C3         -0.0610   -1.7285    5.9769 C.ar    1  UNK11       0.0086
      5 C4         -3.2015   -2.9680    2.2686 C.2     1  UNK11       0.2342
      6 C5          0.1889   -0.2823    4.2622 C.ar    1  UNK11       0.0031
      7 C6         -0.8087   -4.6379    3.6961 C.2     1  UNK11       0.2340
      8 C7          1.2872   -0.1440    5.1188 C.ar    1  UNK11       0.0491
      9 N2          1.2904   -5.9570    3.7518 N.am    1  UNK11      -0.2879
     10 N3          2.8673   -6.3336    5.4114 N.am    1  UNK11      -0.2856
     11 N4         -0.9242   -3.6235    2.7603 N.am    1  UNK11      -0.3022
     12 N5         -4.3537   -2.3861    2.7251 N.am    1  UNK11      -0.3054
     13 C8         -1.8672   -2.4957    2.8990 C.3     1  UNK11       0.1034
     14 C9         -0.0567   -5.8786    3.1624 C.3     1  UNK11       0.1011
     15 C10        -5.7020   -2.8053    2.2794 C.3     1  UNK11       0.0680
     16 C11        -1.9658   -1.8097    4.2667 C.3     1  UNK11       0.0013
     17 C12        -6.6295   -3.1111    3.4950 C.2     1  UNK11       0.0623
     18 C13        -6.4484   -1.6744    1.5572 C.3     1  UNK11       0.0133
     19 O1          0.6819   -6.9308    5.7377 O.2     1  UNK11      -0.2526
     20 O2         -1.1946   -4.5465    4.8554 O.2     1  UNK11      -0.2738
     21 O3         -3.1784   -3.7416    1.3029 O.2     1  UNK11      -0.2738
     22 N6         -5.7752    0.1713    0.0991 N.ar    1  UNK11      -0.2598
     23 O4         -7.6818   -3.7596    3.2414 O.co2   1  UNK11      -0.5479
     24 C14        -0.8828   -7.1742    3.2576 C.3     1  UNK11      -0.0236
     25 C15        -5.8110   -1.1767    0.2791 C.ar    1  UNK11       0.0434
     26 O5         -6.1878   -2.6626    4.5987 O.co2   1  UNK11      -0.5479
     27 C16         1.9722   -1.1848    7.2949 C.3     1  UNK11       0.0119
     28 C17         3.9746   -6.2366    4.4572 C.3     1  UNK11       0.0161
     29 C18         3.1689   -6.5979    6.8137 C.3     1  UNK11       0.0161
     30 C19         2.3237    0.7688    4.8648 C.ar    1  UNK11      -0.0376
     31 C20         0.1230    0.5390    3.1165 C.ar    1  UNK11      -0.0523
     32 C21        -2.1429   -7.1698    2.3593 C.3     1  UNK11      -0.0446
     33 C22        -5.2554    0.6374   -1.0555 C.ar    1  UNK11       0.0279
     34 C23        -5.3549   -2.0582   -0.6982 C.ar    1  UNK11      -0.0403
     35 C24        -3.3753   -6.6408    3.1001 C.3     1  UNK11      -0.0626
     36 C25        -2.4433   -8.5859    1.8596 C.3     1  UNK11      -0.0626
     37 C26         5.3468   -6.6701    4.9825 C.3     1  UNK11      -0.0371
     38 C27         3.5241   -8.0572    7.0978 C.3     1  UNK11      -0.0371
     39 C28         1.1534    1.4474    2.8510 C.ar    1  UNK11      -0.0611
     40 C29         2.2389    1.5572    3.7138 C.ar    1  UNK11      -0.0598
     41 C30        -4.7683   -0.1727   -2.0650 C.ar    1  UNK11      -0.0436
     42 C31        -4.8208   -1.5473   -1.8790 C.ar    1  UNK11      -0.0586
     43 C32         5.4621   -8.1434    5.3868 C.3     1  UNK11      -0.0516
     44 C33         4.2094   -8.8052    5.9561 C.3     1  UNK11      -0.0516
@<TRIPOS>BOND
     1     2     4   ar
     2     3     9   am
     3     1     4   ar
     4     5    13    1
     5     1     6   ar
     6     7    11   am
     7     6     8   ar
     8     9    14    1
     9     3    10   am
    10    11    13    1
    11     5    12   am
    12    13    16    1
    13     7    14    1
    14    12    15    1
    15     1    16    1
    16    15    17    1
    17    15    18    1
    18     3    19    2
    19     7    20    2
    20     5    21    2
    21    22    25   ar
    22    17    23   ar
    23    14    24    1
    24    18    25    1
    25    17    26   ar
    26     2    27    1
    27    10    28    1
    28    10    29    1
    29     8    30   ar
    30     6    31   ar
    31    24    32    1
    32    22    33   ar
    33    25    34   ar
    34    32    35    1
    35    32    36    1
    36    28    37    1
    37    29    38    1
    38    31    39   ar
    39    39    40   ar
    40    41    42   ar
    41    34    42   ar
    42    37    43    1
    43    38    44    1
    44     2     8   ar
    45    30    40   ar
    46    33    41   ar
    47    43    44    1
