@<TRIPOS>MOLECULE
BOSENTAN_50CONFORMERS.pdb
 39 42 0 0 0
SMALL
GASTEIGER

@<TRIPOS>ATOM
      1  S1        -1.5440    0.0090    2.8900 S.O2    1  LGD1        0.0943
      2  O2        -0.3820    0.9220    2.7460 O.2     1  LGD1       -0.1483
      3  O3        -2.8240    0.5550    3.4170 O.2     1  LGD1       -0.1483
      4  O4        -2.4950   -2.8450   -0.1970 O.3     1  LGD1       -0.4427
      5  O5        -0.5660   -3.8370   -2.0080 O.3     1  LGD1       -0.4552
      6  O6        -0.6060   -4.8860    0.7060 O.3     1  LGD1       -0.4684
      7  O7        -0.3890   -6.7370   -2.4220 O.3     1  LGD1       -0.2162
      8  N8        -1.8130   -0.7330    1.4350 N.pl3   1  LGD1       -0.0737
      9  N9         0.3460   -0.5150    0.3770 N.ar    1  LGD1       -0.2027
     10  N10        1.0030   -2.1060   -1.3800 N.ar    1  LGD1       -0.1866
     11  N11        2.6200    0.9660   -0.0750 N.ar    1  LGD1       -0.2224
     12  N12        3.7050   -1.0210   -1.1030 N.ar    1  LGD1       -0.2224
     13  C13        0.0190   -5.0290    6.0000 C.3     1  LGD1        0.0189
     14  C14       -0.4260   -3.8170    5.2730 C.ar    1  LGD1       -0.0227
     15  C15        0.3160   -4.6510    7.4820 C.3     1  LGD1        0.0044
     16  C16        1.2290   -5.6930    5.3760 C.3     1  LGD1        0.0044
     17  C17       -0.9790   -6.1770    6.1340 C.3     1  LGD1        0.0044
     18  C18        0.4550   -2.7350    5.1890 C.ar    1  LGD1       -0.0029
     19  C19       -1.7640   -3.5220    4.8250 C.ar    1  LGD1       -0.0029
     20  C20       -1.0840   -1.3330    3.8930 C.ar    1  LGD1        0.1271
     21  C21        0.1530   -1.5260    4.4910 C.ar    1  LGD1        0.0199
     22  C22       -2.0630   -2.3210    4.1780 C.ar    1  LGD1        0.0199
     23  C23       -0.7970   -1.1460    0.5500 C.ar    1  LGD1        0.2125
     24  C24       -1.1710   -2.2220   -0.3380 C.ar    1  LGD1        0.2327
     25  C25       -0.2610   -2.6650   -1.3210 C.ar    1  LGD1        0.2651
     26  C26        1.2410   -1.0530   -0.5070 C.ar    1  LGD1        0.2028
     27  C27       -2.7050   -3.7680    0.8010 C.ar    1  LGD1        0.1793
     28  C28        2.6490   -0.2980   -0.5950 C.ar    1  LGD1        0.1990
     29  C29        0.6260   -4.4880   -2.5940 C.3     1  LGD1        0.2426
     30  C30       -1.8060   -4.7430    1.1960 C.ar    1  LGD1        0.1730
     31  C31       -3.9710   -3.7500    1.3750 C.ar    1  LGD1        0.0406
     32  C32       -2.1800   -5.7840    2.1180 C.ar    1  LGD1        0.0401
     33  C33        0.3600   -5.8430   -3.3360 C.3     1  LGD1        0.2292
     34  C34       -4.3540   -4.8080    2.2820 C.ar    1  LGD1        0.0033
     35  C35       -3.4620   -5.7990    2.6500 C.ar    1  LGD1        0.0033
     36  C36        3.8620    1.5620   -0.0270 C.ar    1  LGD1        0.1023
     37  C37        4.9230   -0.4160   -0.9260 C.ar    1  LGD1        0.1023
     38  C38        4.9800    0.8740   -0.4000 C.ar    1  LGD1        0.0414
     39  C39        0.3900   -4.3460    1.6180 C.3     1  LGD1        0.2526
@<TRIPOS>BOND
     1    33     7    1
     2    33    29    1
     3     5    29    1
     4     5    25    1
     5    10    25   ar
     6    10    26   ar
     7    36    11   ar
     8    36    38   ar
     9    11    28   ar
    10    25    24   ar
    11    38    37   ar
    12    34    31   ar
    13    34    35   ar
    14    28    26    1
    15    28    12   ar
    16    26     9   ar
    17    31    27   ar
    18    37    12   ar
    19    24     4    1
    20    24    23   ar
    21     4    27    1
    22    27    30   ar
    23    35    32   ar
    24    15    13    1
    25     9    23   ar
    26    23     8    1
    27    30    32   ar
    28    30     6    1
    29     6    39    1
    30     8     1    1
    31    18    14   ar
    32    18    21   ar
    33    13    14    1
    34    13    17    1
    35    13    16    1
    36    14    19   ar
    37    21    20   ar
    38    20     1    1
    39    20    22   ar
    40    19    22   ar
    41     1     2    2
    42     1     3    2
@<TRIPOS>MOLECULE
16219006
 44 47 0 0 0
SMALL
GASTEIGER

@<TRIPOS>ATOM
      1 O           6.3421   -3.3162    4.8930 O.2     1  PRO11      -0.2738
      2 O           5.9975   -7.5176    3.4387 O.2     5  ASP55      -0.2735
      3 O           3.7288   -7.0976    6.9032 O.2     2  VAL22      -0.2738
      4 O           2.7660   -5.5914   -0.0005 O.2     4  TRP44      -0.2738
      5 O           1.7963   -4.1083    3.7388 O.2     3  LEU33      -0.2738
      6 OD1         3.1371   -9.1700    2.7906 O.co2   5  ASP55      -0.5497
      7 OD2         4.5399  -10.8808    2.1999 O.co2   5  ASP55      -0.5497
      8 N           6.1961   -5.5429    2.3585 N.am    1  PRO11      -0.2884
      9 N           5.9987   -5.5068    5.4497 N.am    2  VAL22      -0.3022
     10 N           3.4019   -6.8848    1.7740 N.am    5  ASP55      -0.3021
     11 N           2.9384   -5.1401    6.0142 N.am    3  LEU33      -0.3025
     12 N           1.2123   -6.2609    3.2033 N.am    4  TRP44      -0.3022
     13 NE1        -3.0281   -7.5876    2.8333 N.ar    4  TRP44      -0.3604
     14 CA          7.1553   -5.0189    3.3305 C.3     1  PRO11       0.1023
     15 CB          7.8623   -3.8953    2.5679 C.3     1  PRO11      -0.0243
     16 CG          6.7849   -3.3801    1.6202 C.3     1  PRO11      -0.0350
     17 CD          6.0394   -4.6450    1.2249 C.3     1  PRO11       0.0156
     18 C           6.4526   -4.5091    4.6143 C.2     1  PRO11       0.2342
     19 C           5.7105   -6.8361    2.4505 C.2     5  ASP55       0.2369
     20 CA          5.2826   -5.2309    6.6960 C.3     2  VAL22       0.1017
     21 CA          4.7250   -7.3015    1.3496 C.3     5  ASP55       0.1047
     22 CB          6.0653   -5.7218    7.9346 C.3     2  VAL22      -0.0197
     23 CA          1.6787   -5.7113    5.5457 C.3     3  LEU33       0.0996
     24 C           3.9158   -5.9291    6.5774 C.2     2  VAL22       0.2342
     25 CB          4.7826   -8.8062    1.1133 C.3     5  ASP55       0.0138
     26 CA          1.1309   -5.9849    1.7650 C.3     4  TRP44       0.1034
     27 CB          0.5028   -5.1599    6.3649 C.3     3  LEU33      -0.0236
     28 CG         -0.8862   -5.6860    5.9479 C.3     3  LEU33      -0.0446
     29 C           2.5190   -6.0954    1.0947 C.2     4  TRP44       0.2343
     30 CB          0.1482   -6.9396    1.0745 C.3     4  TRP44       0.0013
     31 C           1.5760   -5.2700    4.0810 C.2     3  LEU33       0.2340
     32 CG1         5.2681   -5.4755    9.2244 C.3     2  VAL22      -0.0605
     33 CG2         7.4195   -5.0136    8.0538 C.3     2  VAL22      -0.0605
     34 CG         -1.2211   -6.9331    1.7012 C.ar    4  TRP44      -0.0201
     35 CG          4.1065   -9.6960    2.1604 C.2     5  ASP55       0.0440
     36 CD1        -1.0165   -7.1977    6.1344 C.3     3  LEU33      -0.0626
     37 CD2        -1.9783   -4.9732    6.7507 C.3     3  LEU33      -0.0626
     38 CD2        -2.1435   -5.8377    1.7750 C.ar    4  TRP44       0.0029
     39 CD1        -1.8116   -7.9945    2.3607 C.ar    4  TRP44       0.0060
     40 CE2        -3.2548   -6.2735    2.4989 C.ar    4  TRP44       0.0467
     41 CE3        -2.1280   -4.5050    1.3140 C.ar    4  TRP44      -0.0523
     42 CZ2        -4.3456   -5.4441    2.7888 C.ar    4  TRP44      -0.0378
     43 CZ3        -3.2084   -3.6612    1.5971 C.ar    4  TRP44      -0.0611
     44 CH2        -4.3001   -4.1263    2.3250 C.ar    4  TRP44      -0.0598
@<TRIPOS>BOND
     1     1    18    2
     2     2    19    2
     3     3    24    2
     4     4    29    2
     5     5    31    2
     6     6    35   ar
     7     7    35   ar
     8     8    14    1
     9     8    17    1
    10     8    19   am
    11     9    18   am
    12     9    20    1
    13    10    21    1
    14    10    29   am
    15    11    23    1
    16    11    24   am
    17    12    26    1
    18    12    31   am
    19    13    39   ar
    20    13    40   ar
    21    14    15    1
    22    14    18    1
    23    15    16    1
    24    16    17    1
    25    19    21    1
    26    20    22    1
    27    20    24    1
    28    21    25    1
    29    22    32    1
    30    22    33    1
    31    23    27    1
    32    23    31    1
    33    25    35    1
    34    26    29    1
    35    26    30    1
    36    27    28    1
    37    28    36    1
    38    28    37    1
    39    30    34    1
    40    34    38   ar
    41    34    39   ar
    42    38    40   ar
    43    38    41   ar
    44    40    42   ar
    45    41    43   ar
    46    42    44   ar
    47    43    44   ar
