@<TRIPOS>MOLECULE
BOSENTAN_50CONFORMERS.pdb
 39 42 0 0 0
SMALL
GASTEIGER

@<TRIPOS>ATOM
      1  S1        -1.4540    0.1350    2.8770 S.O2    1  LGD1        0.0943
      2  O2        -0.4470   -0.7320    3.5100 O.2     1  LGD1       -0.1483
      3  O3        -1.1360    1.5320    2.4670 O.2     1  LGD1       -0.1483
      4  O4        -2.4110   -2.7360   -0.2730 O.3     1  LGD1       -0.4427
      5  O5        -0.5950   -3.8040   -2.0130 O.3     1  LGD1       -0.4552
      6  O6        -4.9930   -2.6790    0.8890 O.3     1  LGD1       -0.4684
      7  O7        -0.8270   -6.9230   -2.0170 O.3     1  LGD1       -0.2162
      8  N8        -1.8590   -0.6640    1.3890 N.pl3   1  LGD1       -0.0737
      9  N9         0.4300   -0.6670    0.4910 N.ar    1  LGD1       -0.2027
     10  N10        0.9940   -2.0320   -1.4390 N.ar    1  LGD1       -0.1866
     11  N11        2.7460    0.3150   -1.9570 N.ar    1  LGD1       -0.2224
     12  N12        3.2800   -0.2760    0.3910 N.ar    1  LGD1       -0.2224
     13  C13       -6.6430    0.0540    6.2240 C.3     1  LGD1        0.0189
     14  C14       -5.3760    0.0310    5.4090 C.ar    1  LGD1       -0.0227
     15  C15       -7.0060   -1.3190    6.8340 C.3     1  LGD1        0.0044
     16  C16       -7.8140    0.5500    5.3550 C.3     1  LGD1        0.0044
     17  C17       -6.5440    1.0780    7.3190 C.3     1  LGD1        0.0044
     18  C18       -4.9740    1.1330    4.6920 C.ar    1  LGD1       -0.0029
     19  C19       -4.5800   -1.1010    5.2480 C.ar    1  LGD1       -0.0029
     20  C20       -3.0040    0.0570    3.8580 C.ar    1  LGD1        0.1271
     21  C21       -3.7460    1.2330    4.0600 C.ar    1  LGD1        0.0199
     22  C22       -3.4560   -1.1520    4.3510 C.ar    1  LGD1        0.0199
     23  C23       -0.8670   -1.1600    0.5400 C.ar    1  LGD1        0.2125
     24  C24       -1.1210   -2.1950   -0.3360 C.ar    1  LGD1        0.2327
     25  C25       -0.1810   -2.7470   -1.2100 C.ar    1  LGD1        0.2651
     26  C26        1.1810   -1.0080   -0.6150 C.ar    1  LGD1        0.2028
     27  C27       -3.4650   -2.3120   -1.0420 C.ar    1  LGD1        0.1793
     28  C28        2.5460   -0.3110   -0.7600 C.ar    1  LGD1        0.1990
     29  C29        0.3230   -4.8710   -2.0790 C.3     1  LGD1        0.2426
     30  C30       -4.7730   -2.3660   -0.4830 C.ar    1  LGD1        0.1730
     31  C31       -3.2360   -1.6370   -2.2440 C.ar    1  LGD1        0.0406
     32  C32       -5.8020   -1.8680   -1.3660 C.ar    1  LGD1        0.0401
     33  C33       -0.0890   -6.1170   -2.8760 C.3     1  LGD1        0.2292
     34  C34       -4.2080   -1.0020   -3.0290 C.ar    1  LGD1        0.0033
     35  C35       -5.4860   -1.2960   -2.6440 C.ar    1  LGD1        0.0033
     36  C36        3.9100    1.0220   -2.0730 C.ar    1  LGD1        0.1023
     37  C37        4.5070    0.3110    0.2100 C.ar    1  LGD1        0.1023
     38  C38        4.7710    0.9960   -0.9790 C.ar    1  LGD1        0.0414
     39  C39       -5.6270   -1.6200    1.6780 C.3     1  LGD1        0.2526
@<TRIPOS>BOND
     1    33     7    1
     2    33    29    1
     3     5    29    1
     4     5    25    1
     5    10    25   ar
     6    10    26   ar
     7    36    11   ar
     8    36    38   ar
     9    11    28   ar
    10    25    24   ar
    11    38    37   ar
    12    34    31   ar
    13    34    35   ar
    14    28    26    1
    15    28    12   ar
    16    26     9   ar
    17    31    27   ar
    18    37    12   ar
    19    24     4    1
    20    24    23   ar
    21     4    27    1
    22    27    30   ar
    23    35    32   ar
    24    15    13    1
    25     9    23   ar
    26    23     8    1
    27    30    32   ar
    28    30     6    1
    29     6    39    1
    30     8     1    1
    31    18    14   ar
    32    18    21   ar
    33    13    14    1
    34    13    17    1
    35    13    16    1
    36    14    19   ar
    37    21    20   ar
    38    20     1    1
    39    20    22   ar
    40    19    22   ar
    41     1     2    2
    42     1     3    2
@<TRIPOS>MOLECULE
9939443
 43 47 0 0 0
SMALL
GASTEIGER

@<TRIPOS>ATOM
      1 S          -1.0594    0.1590    3.0160 S.O2    1  LIG11       0.0908
      2 O          -2.8564   -1.3921    0.2601 O.3     1  LIG11      -0.4435
      3 O          -0.6107   -1.2240    3.0009 O.2     1  LIG11      -0.1484
      4 O          -0.2517    1.1860    3.6428 O.2     1  LIG11      -0.1484
      5 O          -1.1752   -3.5367   -0.9300 O.3     1  LIG11      -0.4715
      6 O          -5.5070   -1.6520    0.8503 O.3     1  LIG11      -0.4914
      7 O          -1.5957   -3.6582    2.3638 O.3     1  LIG11      -0.3917
      8 N          -1.3488    0.6811    1.4111 N.pl3   1  LIG11      -0.1950
      9 N          -3.2476    1.4385    3.8193 N.ar    1  LIG11      -0.2351
     10 N           0.4946   -0.0012    0.2322 N.ar    1  LIG11      -0.2073
     11 N           0.5790   -2.1348   -0.7982 N.ar    1  LIG11      -0.1899
     12 N           5.2680   -0.3363   -1.4487 N.ar    1  LIG11      -0.2552
     13 N           4.8307    2.7507    0.4927 N.ar    1  LIG11      -0.5621
     14 N           6.6251    2.0220   -0.6778 N.ar    1  LIG11      -0.1535
     15 N           5.8964    3.5623    0.5564 N.ar    1  LIG11      -0.3597
     16 N           6.9758    3.1759   -0.1276 N.ar    1  LIG11      -0.0878
     17 C          -6.4633    0.6177    5.6658 C.3     1  LIG11      -0.0201
     18 C          -5.1176    0.4172    4.9968 C.ar    1  LIG11      -0.0266
     19 C          -6.6466   -0.2229    6.9335 C.3     1  LIG11      -0.0586
     20 C          -7.6009    0.3487    4.6793 C.3     1  LIG11      -0.0586
     21 C          -2.6868    0.2014    3.7591 C.ar    1  LIG11       0.1969
     22 C          -4.5110   -0.8391    4.8679 C.ar    1  LIG11      -0.0535
     23 C          -4.4431    1.5102    4.4455 C.ar    1  LIG11       0.0332
     24 C          -3.2689   -0.9560    4.2491 C.ar    1  LIG11      -0.0160
     25 C          -0.8055   -0.2289    0.4634 C.ar    1  LIG11       0.1882
     26 C          -1.5166   -1.3326    0.0321 C.ar    1  LIG11       0.2307
     27 C          -0.7300   -2.3127   -0.5272 C.ar    1  LIG11       0.2641
     28 C           1.1422   -0.9716   -0.4277 C.ar    1  LIG11       0.1659
     29 C           2.5611   -0.7564   -0.7639 C.ar    1  LIG11       0.0227
     30 C          -3.7307   -1.5692   -0.7958 C.ar    1  LIG11       0.1702
     31 C           3.2521    0.3952   -0.3504 C.ar    1  LIG11      -0.0252
     32 C           3.2794   -1.6905   -1.5238 C.ar    1  LIG11      -0.0328
     33 C          -1.8731   -4.3252    0.0448 C.3     1  LIG11       0.1143
     34 C          -5.0778   -1.7521   -0.4493 C.ar    1  LIG11       0.1621
     35 C           4.5885    0.5736   -0.7069 C.ar    1  LIG11       0.0708
     36 C          -3.3825   -1.6015   -2.1503 C.ar    1  LIG11      -0.0157
     37 C           4.6047   -1.4421   -1.8352 C.ar    1  LIG11       0.0289
     38 C          -1.1199   -4.5502    1.3586 C.3     1  LIG11       0.0783
     39 C          -6.0346   -2.0782   -1.4118 C.ar    1  LIG11      -0.0163
     40 C          -4.3455   -1.9045   -3.1205 C.ar    1  LIG11      -0.0581
     41 C          -5.6649   -2.1601   -2.7506 C.ar    1  LIG11      -0.0581
     42 C           5.3246    1.7701   -0.2929 C.ar    1  LIG11       0.0207
     43 C          -5.6248   -0.2716    1.2034 C.3     1  LIG11       0.0790
@<TRIPOS>BOND
     1     1    21    1
     2     1     8    1
     3     1     4    2
     4     1     3    2
     5     2    26    1
     6     2    30    1
     7     5    27    1
     8     5    33    1
     9     6    34    1
    10     6    43    1
    11     7    38    1
    12     8    25    1
    13     9    23   ar
    14     9    21   ar
    15    10    25   ar
    16    10    28   ar
    17    11    27   ar
    18    11    28   ar
    19    12    37   ar
    20    12    35   ar
    21    13    15   ar
    22    13    42   ar
    23    14    42   ar
    24    14    16   ar
    25    15    16   ar
    26    17    18    1
    27    17    20    1
    28    17    19    1
    29    18    23   ar
    30    18    22   ar
    31    21    24   ar
    32    22    24   ar
    33    25    26   ar
    34    26    27   ar
    35    28    29    1
    36    29    31   ar
    37    29    32   ar
    38    30    36   ar
    39    30    34   ar
    40    31    35   ar
    41    32    37   ar
    42    33    38    1
    43    34    39   ar
    44    35    42    1
    45    36    40   ar
    46    39    41   ar
    47    40    41   ar
