@<TRIPOS>MOLECULE
BOSENTAN_50CONFORMERS.pdb
 39 42 0 0 0
SMALL
GASTEIGER

@<TRIPOS>ATOM
      1  S1        -1.4390   -0.2770    2.9850 S.O2    1  LGD1        0.0943
      2  O2        -0.6700   -1.4790    3.3950 O.2     1  LGD1       -0.1483
      3  O3        -0.7820    1.0800    2.9240 O.2     1  LGD1       -0.1483
      4  O4        -2.3410   -2.9570   -0.1060 O.3     1  LGD1       -0.4427
      5  O5        -0.5880   -3.7510   -2.0700 O.3     1  LGD1       -0.4552
      6  O6        -0.6390   -4.6760    1.2730 O.3     1  LGD1       -0.4684
      7  O7         0.2720   -6.7200   -2.4470 O.3     1  LGD1       -0.2162
      8  N8        -1.8070   -0.6970    1.4040 N.pl3   1  LGD1       -0.0737
      9  N9         0.3430   -0.4940    0.3660 N.ar    1  LGD1       -0.2027
     10  N10        0.9830   -2.1230   -1.3670 N.ar    1  LGD1       -0.1866
     11  N11        2.5130    1.1060   -0.5040 N.ar    1  LGD1       -0.2224
     12  N12        3.6290   -1.0050   -1.1160 N.ar    1  LGD1       -0.2224
     13  C13       -6.5950    0.1700    6.2170 C.3     1  LGD1        0.0189
     14  C14       -5.3280   -0.0220    5.3910 C.ar    1  LGD1       -0.0227
     15  C15       -6.5870    1.3970    7.0820 C.3     1  LGD1        0.0044
     16  C16       -7.0120   -0.9870    7.1630 C.3     1  LGD1        0.0044
     17  C17       -7.7730    0.2730    5.3230 C.3     1  LGD1        0.0044
     18  C18       -4.6910   -1.2290    5.3750 C.ar    1  LGD1       -0.0029
     19  C19       -4.8140    1.0550    4.6240 C.ar    1  LGD1       -0.0029
     20  C20       -2.9390   -0.2310    3.9090 C.ar    1  LGD1        0.1271
     21  C21       -3.4680   -1.3120    4.6530 C.ar    1  LGD1        0.0199
     22  C22       -3.6280    0.9530    3.8950 C.ar    1  LGD1        0.0199
     23  C23       -0.8340   -1.1740    0.5510 C.ar    1  LGD1        0.2125
     24  C24       -1.1200   -2.2620   -0.3010 C.ar    1  LGD1        0.2327
     25  C25       -0.2210   -2.7180   -1.2450 C.ar    1  LGD1        0.2651
     26  C26        1.2260   -1.0560   -0.5310 C.ar    1  LGD1        0.2028
     27  C27       -2.7610   -3.5750    1.0700 C.ar    1  LGD1        0.1793
     28  C28        2.5840   -0.2650   -0.6670 C.ar    1  LGD1        0.1990
     29  C29        0.4340   -4.2220   -2.9040 C.3     1  LGD1        0.2426
     30  C30       -1.9740   -4.5840    1.6410 C.ar    1  LGD1        0.1730
     31  C31       -3.9860   -3.2280    1.6160 C.ar    1  LGD1        0.0406
     32  C32       -2.5570   -5.3210    2.7090 C.ar    1  LGD1        0.0401
     33  C33        0.0290   -5.6430   -3.4140 C.3     1  LGD1        0.2292
     34  C34       -4.5440   -3.9250    2.6490 C.ar    1  LGD1        0.0033
     35  C35       -3.8470   -5.0250    3.1700 C.ar    1  LGD1        0.0033
     36  C36        3.6780    1.8040   -0.6970 C.ar    1  LGD1        0.1023
     37  C37        4.7690   -0.3520   -1.2920 C.ar    1  LGD1        0.1023
     38  C38        4.7980    1.0310   -1.0460 C.ar    1  LGD1        0.0414
     39  C39       -0.1810   -5.9900    0.9310 C.3     1  LGD1        0.2526
@<TRIPOS>BOND
     1    33     7    1
     2    33    29    1
     3     5    29    1
     4     5    25    1
     5    10    25   ar
     6    10    26   ar
     7    36    11   ar
     8    36    38   ar
     9    11    28   ar
    10    25    24   ar
    11    38    37   ar
    12    34    31   ar
    13    34    35   ar
    14    28    26    1
    15    28    12   ar
    16    26     9   ar
    17    31    27   ar
    18    37    12   ar
    19    24     4    1
    20    24    23   ar
    21     4    27    1
    22    27    30   ar
    23    35    32   ar
    24    15    13    1
    25     9    23   ar
    26    23     8    1
    27    30    32   ar
    28    30     6    1
    29     6    39    1
    30     8     1    1
    31    18    14   ar
    32    18    21   ar
    33    13    14    1
    34    13    17    1
    35    13    16    1
    36    14    19   ar
    37    21    20   ar
    38    20     1    1
    39    20    22   ar
    40    19    22   ar
    41     1     2    2
    42     1     3    2
@<TRIPOS>MOLECULE
02228316B
 42 46 0 0 0
SMALL
GASTEIGER

@<TRIPOS>ATOM
      1 C          -1.0468   -5.4419   -2.5609 C.3     1  LIG11       0.2491
      2 C          -1.0889   -5.4451   -1.0507 C.2     1  LIG11       0.3556
      3 N          -2.1038   -6.4142   -2.9388 N.2     1  LIG11      -0.0687
      4 C           0.3127   -5.8919   -3.1083 C.3     1  LIG11       0.0059
      5 C          -1.3382   -4.0649   -3.1600 C.3     1  LIG11       0.0059
      6 N          -2.1985   -6.1709   -0.7085 N.am    1  LIG11      -0.1529
      7 O          -0.2503   -4.9681   -0.3012 O.2     1  LIG11      -0.2422
      8 C          -2.6635   -6.7643   -1.8178 C.2     1  LIG11       0.2916
      9 C           0.8961   -4.6493   -3.7711 C.3     1  LIG11      -0.0481
     10 C          -0.3292   -3.9199   -4.2936 C.3     1  LIG11      -0.0481
     11 C          -2.5003   -6.4193    0.6883 C.3     1  LIG11       0.1137
     12 C          -3.7063   -7.8660   -1.8371 C.3     1  LIG11       0.0509
     13 C          -2.9297   -5.1855    1.4576 C.ar    1  LIG11      -0.0073
     14 C          -5.0591   -7.6278   -1.1789 C.3     1  LIG11      -0.0424
     15 C          -2.5562   -5.0675    2.8016 C.ar    1  LIG11      -0.0491
     16 C          -3.6835   -4.1567    0.9059 C.ar    1  LIG11      -0.0544
     17 C          -5.7702   -6.3555   -1.6248 C.3     1  LIG11      -0.0554
     18 C          -2.7930   -3.9065    3.5685 C.ar    1  LIG11      -0.0138
     19 C          -3.9927   -3.0220    1.6635 C.ar    1  LIG11      -0.0533
     20 C          -7.0164   -6.1221   -0.7822 C.3     1  LIG11      -0.0653
     21 C          -3.5124   -2.8333    2.9742 C.ar    1  LIG11      -0.0106
     22 C          -2.3539   -3.8963    5.0282 C.3     1  LIG11       0.0732
     23 C          -3.8241   -1.5667    3.6888 C.ar    1  LIG11       0.0091
     24 O          -1.0190   -4.3152    5.3054 O.3     1  LIG11      -0.3754
     25 C          -3.3614   -0.2712    3.3579 C.ar    1  LIG11       0.1162
     26 C          -4.6555   -1.6589    4.8336 C.ar    1  LIG11      -0.0521
     27 C          -0.7162   -5.6964    5.4543 C.3     1  LIG11       0.0453
     28 S          -2.4280    0.1508    1.8911 S.O2    1  LIG11       0.0741
     29 C          -3.6365    0.8324    4.1966 C.ar    1  LIG11      -0.0345
     30 C          -4.9374   -0.5584    5.6497 C.ar    1  LIG11      -0.0611
     31 C          -1.7692   -6.5628    6.1253 C.3     1  LIG11      -0.0416
     32 N          -3.5229    1.1648    1.0547 N.pl3   1  LIG11      -0.1965
     33 O          -2.1404   -0.9993    1.0748 O.2     1  LIG11      -0.1499
     34 O          -1.3555    1.0323    2.3203 O.2     1  LIG11      -0.1499
     35 C          -4.4122    0.6856    5.3414 C.ar    1  LIG11      -0.0599
     36 C          -4.4490    0.5774    0.1979 C.ar    1  LIG11       0.1837
     37 C          -5.7578    0.1373    0.5239 C.ar    1  LIG11       0.0342
     38 N          -4.2146    0.4944   -1.1111 N.ar    1  LIG11      -0.0614
     39 C          -6.2326   -0.3635   -0.6715 C.ar    1  LIG11       0.1390
     40 C          -6.4767    0.1885    1.8163 C.3     1  LIG11      -0.0330
     41 O          -5.3152   -0.1457   -1.6490 O.2     1  LIG11      -0.3578
     42 C          -7.4742   -1.0422   -1.0879 C.3     1  LIG11      -0.0034
@<TRIPOS>BOND
     1     1     5    1
     2     1     4    1
     3     1     2    1
     4     1     3    1
     5     2     6   am
     6     2     7    2
     7     3     8    2
     8     4     9    1
     9     5    10    1
    10     6     8    1
    11     6    11    1
    12     8    12    1
    13     9    10    1
    14    11    13    1
    15    12    14    1
    16    13    15   ar
    17    13    16   ar
    18    14    17    1
    19    15    18   ar
    20    16    19   ar
    21    17    20    1
    22    18    21   ar
    23    18    22    1
    24    19    21   ar
    25    21    23    1
    26    22    24    1
    27    23    26   ar
    28    23    25   ar
    29    24    27    1
    30    25    29   ar
    31    25    28    1
    32    26    30   ar
    33    27    31    1
    34    28    34    2
    35    28    33    2
    36    28    32    1
    37    29    35   ar
    38    30    35   ar
    39    32    36    1
    40    36    37   ar
    41    36    38   ar
    42    37    39   ar
    43    37    40    1
    44    38    41   ar
    45    39    41   ar
    46    39    42    1
