@<TRIPOS>MOLECULE
BOSENTAN_50CONFORMERS.pdb
 39 42 0 0 0
SMALL
GASTEIGER

@<TRIPOS>ATOM
      1  S1        -1.8260    0.8680    2.1150 S.O2    1  LGD1        0.0943
      2  O2        -3.2310    1.0510    2.6420 O.2     1  LGD1       -0.1483
      3  O3        -0.7360    0.8420    3.1650 O.2     1  LGD1       -0.1483
      4  O4        -2.4030   -2.7480   -0.1730 O.3     1  LGD1       -0.4427
      5  O5        -0.5250   -3.7950   -2.0950 O.3     1  LGD1       -0.4552
      6  O6        -2.8550   -0.2480   -1.8440 O.3     1  LGD1       -0.4684
      7  O7        -1.9730   -4.8030   -4.4000 O.3     1  LGD1       -0.2162
      8  N8        -1.8030   -0.6630    1.3420 N.pl3   1  LGD1       -0.0737
      9  N9         0.3910   -0.5170    0.4490 N.ar    1  LGD1       -0.2027
     10  N10        0.9160   -2.0940   -1.3960 N.ar    1  LGD1       -0.1866
     11  N11        2.6710    0.8150   -0.9050 N.ar    1  LGD1       -0.2224
     12  N12        3.5280   -1.4300   -0.5030 N.ar    1  LGD1       -0.2224
     13  C13       -0.5230    4.4800   -2.6490 C.3     1  LGD1        0.0189
     14  C14       -0.8270    3.6580   -1.3880 C.ar    1  LGD1       -0.0227
     15  C15       -1.6210    5.5800   -2.8100 C.3     1  LGD1        0.0044
     16  C16       -0.4680    3.6970   -4.0130 C.3     1  LGD1        0.0044
     17  C17        0.8300    5.1600   -2.6730 C.3     1  LGD1        0.0044
     18  C18        0.1540    3.3630   -0.3720 C.ar    1  LGD1       -0.0029
     19  C19       -2.1270    3.0610   -1.2730 C.ar    1  LGD1       -0.0029
     20  C20       -1.4510    1.9720    0.8310 C.ar    1  LGD1        0.1271
     21  C21       -0.1290    2.4730    0.7040 C.ar    1  LGD1        0.0199
     22  C22       -2.4280    2.2780   -0.1370 C.ar    1  LGD1        0.0199
     23  C23       -0.8140   -1.1840    0.5480 C.ar    1  LGD1        0.2125
     24  C24       -1.1190   -2.2490   -0.2350 C.ar    1  LGD1        0.2327
     25  C25       -0.2610   -2.7270   -1.2750 C.ar    1  LGD1        0.2651
     26  C26        1.1980   -1.0480   -0.5300 C.ar    1  LGD1        0.2028
     27  C27       -3.3080   -2.6450   -1.2120 C.ar    1  LGD1        0.1793
     28  C28        2.5710   -0.4720   -0.5450 C.ar    1  LGD1        0.1990
     29  C29       -0.0310   -3.6890   -3.4570 C.3     1  LGD1        0.2426
     30  C30       -3.5470   -1.4580   -2.0260 C.ar    1  LGD1        0.1730
     31  C31       -4.0820   -3.7780   -1.4710 C.ar    1  LGD1        0.0406
     32  C32       -4.5460   -1.5120   -2.9680 C.ar    1  LGD1        0.0401
     33  C33       -0.5230   -4.8470   -4.3420 C.3     1  LGD1        0.2292
     34  C34       -5.0600   -3.7560   -2.4690 C.ar    1  LGD1        0.0033
     35  C35       -5.2410   -2.6820   -3.2890 C.ar    1  LGD1        0.0033
     36  C36        3.9260    1.3540   -0.9780 C.ar    1  LGD1        0.1023
     37  C37        4.8260   -0.9910   -0.5450 C.ar    1  LGD1        0.1023
     38  C38        4.9700    0.4280   -0.7720 C.ar    1  LGD1        0.0414
     39  C39       -1.9900   -0.1040   -3.0090 C.3     1  LGD1        0.2526
@<TRIPOS>BOND
     1    33     7    1
     2    33    29    1
     3     5    29    1
     4     5    25    1
     5    10    25   ar
     6    10    26   ar
     7    36    11   ar
     8    36    38   ar
     9    11    28   ar
    10    25    24   ar
    11    38    37   ar
    12    34    31   ar
    13    34    35   ar
    14    28    26    1
    15    28    12   ar
    16    26     9   ar
    17    31    27   ar
    18    37    12   ar
    19    24     4    1
    20    24    23   ar
    21     4    27    1
    22    27    30   ar
    23    35    32   ar
    24    15    13    1
    25     9    23   ar
    26    23     8    1
    27    30    32   ar
    28    30     6    1
    29     6    39    1
    30     8     1    1
    31    18    14   ar
    32    18    21   ar
    33    13    14    1
    34    13    17    1
    35    13    16    1
    36    14    19   ar
    37    21    20   ar
    38    20     1    1
    39    20    22   ar
    40    19    22   ar
    41     1     2    2
    42     1     3    2
@<TRIPOS>MOLECULE
23693553
 46 48 0 0 0
SMALL
GASTEIGER

@<TRIPOS>ATOM
      1 O           2.2971    2.4142   -4.0842 O.2     1  LIG11      -0.2526
      2 O          -0.7569    4.0519   -7.2827 O.2     1  LIG11      -0.2731
      3 O          -2.5314    2.3786   -4.4397 O.2     1  LIG11      -0.2689
      4 O          -1.5338   -0.8805   -7.9946 O.co2   1  LIG11      -0.5479
      5 OXT         0.4025    0.1424   -7.4062 O.co2   1  LIG11      -0.5479
      6 O          -6.7395   -3.1599   -6.0926 O.3     1  LIG11      -0.4515
      7 O          -6.9803   -4.8160   -4.4920 O.2     1  LIG11      -0.2227
      8 N           3.6424    3.5421   -5.5914 N.am    1  LIG11      -0.2801
      9 N           1.3279    3.8957   -5.4884 N.am    1  LIG11      -0.2879
     10 N          -1.4617    2.0343   -6.3876 N.am    1  LIG11      -0.2273
     11 N          -2.8868   -0.8780   -6.0092 N.3     1  LIG11       0.2276
     12 N          -5.7145   -2.9256   -4.0861 N.ar    1  LIG11      -0.2526
     13 C           3.7903    4.4138   -6.7786 C.3     1  LIG11       0.0249
     14 C           4.8304    2.9342   -4.9583 C.3     1  LIG11       0.0249
     15 C           5.1840    5.0319   -6.9687 C.3     1  LIG11      -0.0344
     16 C           6.1581    3.6744   -5.1908 C.3     1  LIG11      -0.0344
     17 C           5.9558    5.1003   -5.6661 C.3     1  LIG11      -0.0497
     18 CA         -0.0341    3.6309   -5.0214 C.3     1  LIG11       0.1019
     19 C          -0.1087    5.3359   -2.9911 C.3     1  LIG11      -0.0356
     20 C          -0.6422    4.8961   -4.3879 C.3     1  LIG11      -0.0210
     21 C           2.4109    3.2057   -5.0207 C.2     1  LIG11       0.3033
     22 C           3.3712    3.6898   -8.0636 C.3     1  LIG11      -0.0464
     23 C           4.9840    1.4540   -5.3254 C.3     1  LIG11      -0.0464
     24 C          -0.7984    3.2703   -6.3216 C.2     1  LIG11       0.2429
     25 C          -0.1741    4.1867   -1.9726 C.3     1  LIG11      -0.0600
     26 C           1.3310    5.8753   -3.0576 C.3     1  LIG11      -0.0600
     27 C          -1.0093    6.4833   -2.4857 C.3     1  LIG11      -0.0600
     28 CA         -1.5348    1.4753   -7.7690 C.3     1  LIG11       0.0730
     29 C          -2.9673    1.4551   -8.3485 C.3     1  LIG11      -0.0286
     30 C          -2.1284    1.5520   -5.2759 C.2     1  LIG11       0.2708
     31 CA         -2.3749    0.0344   -4.9472 C.3     1  LIG11       0.0579
     32 C          -3.7876    2.7297   -8.1213 C.3     1  LIG11      -0.0513
     33 C          -3.3867   -0.0321   -3.7409 C.3     1  LIG11       0.0261
     34 C          -0.7758    0.1309   -7.8361 C.2     1  LIG11       0.0626
     35 C          -4.2146   -1.2899   -3.6057 C.ar    1  LIG11      -0.0158
     36 C          -5.2303    2.6047   -8.6275 C.3     1  LIG11      -0.0558
     37 C          -4.1630   -2.2758   -2.5747 C.ar    1  LIG11       0.0038
     38 C          -5.2633   -1.6572   -4.4277 C.ar    1  LIG11       0.0202
     39 C          -5.1225   -3.2573   -2.8683 C.ar    1  LIG11       0.0598
     40 C          -6.0754    1.6258   -7.8203 C.3     1  LIG11      -0.0653
     41 C          -3.3926   -2.4127   -1.3998 C.ar    1  LIG11      -0.0523
     42 C          -5.3311   -4.3582   -2.0165 C.ar    1  LIG11      -0.0371
     43 C          -3.6080   -3.5007   -0.5473 C.ar    1  LIG11      -0.0611
     44 C          -6.5705   -3.7320   -4.8691 C.2     1  LIG11       0.4196
     45 C          -4.5668   -4.4579   -0.8525 C.ar    1  LIG11      -0.0598
     46 C          -7.4070   -3.9937   -7.0421 C.3     1  LIG11       0.0835
@<TRIPOS>BOND
     1     1    21    2
     2     2    24    2
     3     3    30    2
     4     4    34   ar
     5     5    34   ar
     6     6    44    1
     7     6    46    1
     8     7    44    2
     9     8    13    1
    10     8    14    1
    11     9    21   am
    12    10    24   am
    13    10    30   am
    14    12    39   ar
    15    12    38   ar
    16    12    44   am
    17    13    15    1
    18    13    22    1
    19    14    16    1
    20    14    23    1
    21    15    17    1
    22    16    17    1
    23    18     9    1
    24    18    24    1
    25    18    20    1
    26    19    20    1
    27    19    27    1
    28    19    26    1
    29    19    25    1
    30    21     8   am
    31    28    34    1
    32    28    29    1
    33    28    10    1
    34    29    32    1
    35    31    33    1
    36    31    11    1
    37    31    30    1
    38    32    36    1
    39    33    35    1
    40    35    38   ar
    41    35    37   ar
    42    36    40    1
    43    37    39   ar
    44    37    41   ar
    45    39    42   ar
    46    41    43   ar
    47    42    45   ar
    48    43    45   ar
