@<TRIPOS>MOLECULE
BOSENTAN_50CONFORMERS.pdb
 39 42 0 0 0
SMALL
GASTEIGER

@<TRIPOS>ATOM
      1  S1        -2.1820   -0.9100    2.9730 S.O2    1  LGD1        0.0943
      2  O2        -1.1080   -1.8970    3.3120 O.2     1  LGD1       -0.1483
      3  O3        -2.2580    0.4270    3.5630 O.2     1  LGD1       -0.1483
      4  O4        -2.1710   -3.1480    0.1260 O.3     1  LGD1       -0.4427
      5  O5        -0.5010   -3.8180   -2.0560 O.3     1  LGD1       -0.4552
      6  O6        -3.2790   -5.5810    0.4230 O.3     1  LGD1       -0.4684
      7  O7        -0.5770   -5.9930   -3.6870 O.3     1  LGD1       -0.2162
      8  N8        -1.8320   -0.5590    1.3370 N.pl3   1  LGD1       -0.0737
      9  N9         0.4210   -0.6660    0.4660 N.ar    1  LGD1       -0.2027
     10  N10        0.9020   -2.0120   -1.4520 N.ar    1  LGD1       -0.1866
     11  N11        3.4630   -1.2060   -0.8480 N.ar    1  LGD1       -0.2224
     12  N12        2.3270    1.0410   -1.0720 N.ar    1  LGD1       -0.2224
     13  C13       -7.9640   -3.1650    2.4140 C.3     1  LGD1        0.0189
     14  C14       -6.4910   -2.6680    2.5690 C.ar    1  LGD1       -0.0227
     15  C15       -8.7730   -3.3680    3.6930 C.3     1  LGD1        0.0044
     16  C16       -8.0640   -4.5820    1.8060 C.3     1  LGD1        0.0044
     17  C17       -8.8840   -2.2290    1.4630 C.3     1  LGD1        0.0044
     18  C18       -6.2880   -1.3140    2.8920 C.ar    1  LGD1       -0.0029
     19  C19       -5.3330   -3.4980    2.6240 C.ar    1  LGD1       -0.0029
     20  C20       -3.8760   -1.5440    2.8700 C.ar    1  LGD1        0.1271
     21  C21       -4.9830   -0.7430    3.0600 C.ar    1  LGD1        0.0199
     22  C22       -4.0790   -2.9190    2.7390 C.ar    1  LGD1        0.0199
     23  C23       -0.8320   -1.1960    0.5800 C.ar    1  LGD1        0.2125
     24  C24       -1.1130   -2.2960   -0.2430 C.ar    1  LGD1        0.2327
     25  C25       -0.2270   -2.6740   -1.2790 C.ar    1  LGD1        0.2651
     26  C26        1.1640   -1.0570   -0.5460 C.ar    1  LGD1        0.2028
     27  C27       -3.2590   -3.4420   -0.6480 C.ar    1  LGD1        0.1793
     28  C28        2.4440   -0.2870   -0.7780 C.ar    1  LGD1        0.1990
     29  C29        0.3350   -4.9370   -1.7660 C.3     1  LGD1        0.2426
     30  C30       -3.8690   -4.6730   -0.4230 C.ar    1  LGD1        0.1730
     31  C31       -3.8740   -2.4690   -1.5190 C.ar    1  LGD1        0.0406
     32  C32       -5.0720   -4.9160   -1.1010 C.ar    1  LGD1        0.0401
     33  C33       -0.3370   -6.1880   -2.2630 C.3     1  LGD1        0.2292
     34  C34       -5.0790   -2.8050   -2.1650 C.ar    1  LGD1        0.0033
     35  C35       -5.7460   -4.0230   -1.9010 C.ar    1  LGD1        0.0033
     36  C36        4.6180   -0.5000   -1.2450 C.ar    1  LGD1        0.1023
     37  C37        3.5030    1.6250   -1.3550 C.ar    1  LGD1        0.1023
     38  C38        4.6870    0.8760   -1.4150 C.ar    1  LGD1        0.0414
     39  C39       -3.9120   -6.8740    0.7750 C.3     1  LGD1        0.2526
@<TRIPOS>BOND
     1    33     7    1
     2    33    29    1
     3     5    29    1
     4     5    25    1
     5    10    25   ar
     6    10    26   ar
     7    36    11   ar
     8    36    38   ar
     9    11    28   ar
    10    25    24   ar
    11    38    37   ar
    12    34    31   ar
    13    34    35   ar
    14    28    26    1
    15    28    12   ar
    16    26     9   ar
    17    31    27   ar
    18    37    12   ar
    19    24     4    1
    20    24    23   ar
    21     4    27    1
    22    27    30   ar
    23    35    32   ar
    24    15    13    1
    25     9    23   ar
    26    23     8    1
    27    30    32   ar
    28    30     6    1
    29     6    39    1
    30     8     1    1
    31    18    14   ar
    32    18    21   ar
    33    13    14    1
    34    13    17    1
    35    13    16    1
    36    14    19   ar
    37    21    20   ar
    38    20     1    1
    39    20    22   ar
    40    19    22   ar
    41     1     2    2
    42     1     3    2
@<TRIPOS>MOLECULE
9957262
 35 38 0 0 0
SMALL
GASTEIGER

@<TRIPOS>ATOM
      1 S          -2.5086    1.7130   -0.0697 S.O2    1  LIG11       0.0668
      2 O          -3.0511   -1.2399   -2.1152 O.3     1  LIG11      -0.4435
      3 O          -1.0920   -3.3010   -2.5918 O.3     1  LIG11      -0.4771
      4 O          -3.1573    3.0026   -0.1845 O.2     1  LIG11      -0.1505
      5 O          -1.3486    1.5722    0.7878 O.2     1  LIG11      -0.1505
      6 O          -5.2086   -2.4155   -3.7329 O.3     1  LIG11      -0.4914
      7 N          -2.0245    1.3367   -1.6524 N.pl3   1  LIG11      -0.1968
      8 N           0.1038    0.5048   -1.7137 N.ar    1  LIG11      -0.2044
      9 N           0.6001   -1.7906   -2.0668 N.ar    1  LIG11      -0.1867
     10 N           3.2444   -1.2733   -1.3287 N.ar    1  LIG11      -0.2331
     11 N           2.8629    1.0348   -1.8163 N.ar    1  LIG11      -0.2331
     12 C          -1.1947    0.1862   -1.7824 C.ar    1  LIG11       0.1883
     13 C          -1.6973   -1.0839   -1.9898 C.ar    1  LIG11       0.2307
     14 C          -0.7184   -2.0399   -2.1768 C.ar    1  LIG11       0.2639
     15 C          -3.6494   -2.4336   -1.7816 C.ar    1  LIG11       0.1702
     16 C          -3.7209    0.5611    0.3924 C.2     1  LIG11       0.0729
     17 C           0.9757   -0.5183   -1.8170 C.ar    1  LIG11       0.2027
     18 C          -4.6849   -2.9395   -2.5816 C.ar    1  LIG11       0.1621
     19 C          -3.7119    0.0735    1.6439 C.2     1  LIG11      -0.0353
     20 C          -4.6563   -0.9034    2.2133 C.ar    1  LIG11      -0.0237
     21 C          -3.3125   -3.0921   -0.5855 C.ar    1  LIG11      -0.0157
     22 C           2.4299   -0.2376   -1.6491 C.ar    1  LIG11       0.1978
     23 C          -5.3301   -4.1206   -2.1872 C.ar    1  LIG11      -0.0163
     24 C          -3.9529   -4.2757   -0.2182 C.ar    1  LIG11      -0.0581
     25 C          -4.9610   -4.7931   -1.0222 C.ar    1  LIG11      -0.0581
     26 C          -5.6535   -1.5465    1.4694 C.ar    1  LIG11      -0.0546
     27 C          -4.5253   -1.2341    3.5714 C.ar    1  LIG11      -0.0546
     28 C          -6.4812   -2.5068    2.0606 C.ar    1  LIG11      -0.0612
     29 C          -5.3576   -2.1870    4.1650 C.ar    1  LIG11      -0.0612
     30 C          -6.3325   -2.8279    3.4070 C.ar    1  LIG11      -0.0617
     31 C          -0.0989   -4.2940   -2.3555 C.3     1  LIG11       0.0805
     32 C          -4.4797   -1.4097   -4.4195 C.3     1  LIG11       0.0790
     33 C           4.5485   -0.9903   -1.1601 C.ar    1  LIG11       0.0315
     34 C           4.1788    1.2541   -1.6401 C.ar    1  LIG11       0.0315
     35 C           5.0764    0.2692   -1.3056 C.ar    1  LIG11      -0.0254
@<TRIPOS>BOND
     1     1     4    2
     2     1     5    2
     3     1     7    1
     4     1    16    1
     5     2    13    1
     6     2    15    1
     7     3    14    1
     8     3    31    1
     9     6    18    1
    10     6    32    1
    11     7    12    1
    12     8    12   ar
    13     8    17   ar
    14     9    14   ar
    15     9    17   ar
    16    10    22   ar
    17    10    33   ar
    18    11    22   ar
    19    11    34   ar
    20    12    13   ar
    21    13    14   ar
    22    15    18   ar
    23    15    21   ar
    24    16    19    2
    25    17    22    1
    26    18    23   ar
    27    19    20    1
    28    20    26   ar
    29    20    27   ar
    30    21    24   ar
    31    23    25   ar
    32    24    25   ar
    33    26    28   ar
    34    27    29   ar
    35    28    30   ar
    36    29    30   ar
    37    33    35   ar
    38    34    35   ar
