@<TRIPOS>MOLECULE
BOSENTAN_50CONFORMERS.pdb
 39 42 0 0 0
SMALL
GASTEIGER

@<TRIPOS>ATOM
      1  S1        -1.5920    0.7080    2.2740 S.O2    1  LGD1        0.0943
      2  O2        -1.3490    1.8560    1.3290 O.2     1  LGD1       -0.1483
      3  O3        -2.7870    0.6970    3.1730 O.2     1  LGD1       -0.1483
      4  O4        -2.3980   -2.8600   -0.2400 O.3     1  LGD1       -0.4427
      5  O5        -0.5350   -3.8030   -2.0080 O.3     1  LGD1       -0.4552
      6  O6        -0.5610   -4.4470    1.2970 O.3     1  LGD1       -0.4684
      7  O7        -0.5480   -6.8990   -2.1550 O.3     1  LGD1       -0.2162
      8  N8        -1.8000   -0.6880    1.3690 N.pl3   1  LGD1       -0.0737
      9  N9         0.3860   -0.5770    0.4390 N.ar    1  LGD1       -0.2027
     10  N10        0.9790   -2.0590   -1.4670 N.ar    1  LGD1       -0.1866
     11  N11        2.5480    0.7850   -1.4200 N.ar    1  LGD1       -0.2224
     12  N12        3.4430   -0.8800    0.2360 N.ar    1  LGD1       -0.2224
     13  C13        3.1410   -0.0020    5.9550 C.3     1  LGD1        0.0189
     14  C14        1.9750    0.1560    4.9860 C.ar    1  LGD1       -0.0227
     15  C15        4.4860    0.6590    5.5210 C.3     1  LGD1        0.0044
     16  C16        3.5350   -1.4280    6.3530 C.3     1  LGD1        0.0044
     17  C17        3.0070    0.7020    7.3280 C.3     1  LGD1        0.0044
     18  C18        0.7230   -0.3990    5.3040 C.ar    1  LGD1       -0.0029
     19  C19        2.0400    1.0120    3.8350 C.ar    1  LGD1       -0.0029
     20  C20       -0.1660    0.4230    3.2060 C.ar    1  LGD1        0.1271
     21  C21       -0.3230   -0.2830    4.3990 C.ar    1  LGD1        0.0199
     22  C22        0.9900    1.1550    2.9170 C.ar    1  LGD1        0.0199
     23  C23       -0.8410   -1.1750    0.5410 C.ar    1  LGD1        0.2125
     24  C24       -1.1550   -2.2170   -0.2970 C.ar    1  LGD1        0.2327
     25  C25       -0.2340   -2.6720   -1.2400 C.ar    1  LGD1        0.2651
     26  C26        1.1820   -1.0860   -0.5290 C.ar    1  LGD1        0.2028
     27  C27       -2.6560   -4.1830    0.0900 C.ar    1  LGD1        0.1793
     28  C28        2.4890   -0.2940   -0.5660 C.ar    1  LGD1        0.1990
     29  C29        0.6870   -4.5840   -2.2510 C.3     1  LGD1        0.2426
     30  C30       -1.7460   -5.0330    0.7980 C.ar    1  LGD1        0.1730
     31  C31       -3.8700   -4.7310   -0.3700 C.ar    1  LGD1        0.0406
     32  C32       -2.0730   -6.3770    1.0220 C.ar    1  LGD1        0.0401
     33  C33        0.2220   -5.9440   -2.9520 C.3     1  LGD1        0.2292
     34  C34       -4.1550   -6.0760   -0.0640 C.ar    1  LGD1        0.0033
     35  C35       -3.3260   -6.9020    0.6510 C.ar    1  LGD1        0.0033
     36  C36        3.7540    1.4140   -1.4170 C.ar    1  LGD1        0.1023
     37  C37        4.6230   -0.2490    0.2180 C.ar    1  LGD1        0.1023
     38  C38        4.8140    0.8600   -0.6520 C.ar    1  LGD1        0.0414
     39  C39       -0.2510   -4.7460    2.6710 C.3     1  LGD1        0.2526
@<TRIPOS>BOND
     1    33     7    1
     2    33    29    1
     3     5    29    1
     4     5    25    1
     5    10    25   ar
     6    10    26   ar
     7    36    11   ar
     8    36    38   ar
     9    11    28   ar
    10    25    24   ar
    11    38    37   ar
    12    34    31   ar
    13    34    35   ar
    14    28    26    1
    15    28    12   ar
    16    26     9   ar
    17    31    27   ar
    18    37    12   ar
    19    24     4    1
    20    24    23   ar
    21     4    27    1
    22    27    30   ar
    23    35    32   ar
    24    15    13    1
    25     9    23   ar
    26    23     8    1
    27    30    32   ar
    28    30     6    1
    29     6    39    1
    30     8     1    1
    31    18    14   ar
    32    18    21   ar
    33    13    14    1
    34    13    17    1
    35    13    16    1
    36    14    19   ar
    37    21    20   ar
    38    20     1    1
    39    20    22   ar
    40    19    22   ar
    41     1     2    2
    42     1     3    2
@<TRIPOS>MOLECULE
9871593
 37 40 0 0 0
SMALL
GASTEIGER

@<TRIPOS>ATOM
      1 O          -3.8668   -5.2664   -1.9065 O.3     1  LIG11      -0.4526
      2 O          -3.2822   -7.5079   -1.2266 O.3     1  LIG11      -0.4526
      3 O          -2.1974    0.2775   -1.4016 O.3     1  LIG11      -0.4913
      4 O           1.0606   -2.9161   -3.1060 O.3     1  LIG11      -0.4913
      5 O          -0.6512   -0.6824   -3.5867 O.3     1  LIG11      -0.4885
      6 O          -1.2829   -2.8148    4.9846 O.2     1  LIG11      -0.2870
      7 O          -4.4536   -4.0121    3.8534 O.co2   1  LIG11      -0.5446
      8 O          -3.9782   -1.7966    3.5027 O.co2   1  LIG11      -0.5446
      9 O           2.5452    2.1513    4.5702 O.3     1  LIG11      -0.4951
     10 C          -0.2268   -3.0084    1.6485 C.3     1  LIG11       0.0021
     11 C          -1.3708   -2.8038    2.6120 C.2     1  LIG11       0.0135
     12 C          -0.3917   -2.4132    0.2529 C.ar    1  LIG11      -0.0358
     13 C          -2.5778   -3.4086    2.4980 C.2     1  LIG11       0.0117
     14 C          -2.8361   -4.4874    1.5316 C.ar    1  LIG11      -0.0121
     15 C          -1.0508   -2.1841    3.9503 C.2     1  LIG11       0.1901
     16 C           0.4017   -2.9050   -0.7915 C.ar    1  LIG11      -0.0126
     17 C          -1.2769   -1.3677   -0.0440 C.ar    1  LIG11      -0.0126
     18 C          -3.3262   -4.2428    0.2438 C.ar    1  LIG11      -0.0084
     19 C          -3.4409   -5.3189   -0.6137 C.ar    1  LIG11       0.1668
     20 C          -2.5097   -5.8099    1.9201 C.ar    1  LIG11      -0.0503
     21 C          -3.1065   -6.5989   -0.2293 C.ar    1  LIG11       0.1663
     22 C          -1.3524   -0.8026   -1.3254 C.ar    1  LIG11       0.1654
     23 C           0.3017   -2.3830   -2.0918 C.ar    1  LIG11       0.1654
     24 C          -0.2042   -0.9603    4.0658 C.ar    1  LIG11       0.0222
     25 C          -0.5350   -1.2843   -2.3591 C.ar    1  LIG11       0.2035
     26 C          -2.6459   -6.8815    1.0360 C.ar    1  LIG11      -0.0156
     27 C          -3.7752   -3.0460    3.4045 C.2     1  LIG11       0.0726
     28 C          -3.7918   -6.6575   -2.2722 C.3     1  LIG11       0.2332
     29 C          -0.0767    0.0000    3.0625 C.ar    1  LIG11      -0.0475
     30 C           0.5308   -0.7890    5.2497 C.ar    1  LIG11      -0.0475
     31 C           0.8369    1.0561    3.1928 C.ar    1  LIG11      -0.0193
     32 C           1.4241    0.2757    5.3915 C.ar    1  LIG11      -0.0193
     33 C           1.6115    1.1769    4.3464 C.ar    1  LIG11       0.1201
     34 C          -2.9977    0.3508   -2.5745 C.3     1  LIG11       0.0790
     35 C           0.9115   -4.3306   -3.2212 C.3     1  LIG11       0.0790
     36 C           0.5600   -0.4958   -4.3078 C.3     1  LIG11       0.0791
     37 C           3.2032    2.6317    3.4029 C.3     1  LIG11       0.0788
@<TRIPOS>BOND
     1     1    19    1
     2     1    28    1
     3     2    28    1
     4     2    21    1
     5     3    22    1
     6     3    34    1
     7     4    23    1
     8     4    35    1
     9     5    25    1
    10     5    36    1
    11     6    15    2
    12     7    27   ar
    13     8    27   ar
    14     9    33    1
    15     9    37    1
    16    10    11    1
    17    10    12    1
    18    11    13    2
    19    11    15    1
    20    12    16   ar
    21    12    17   ar
    22    13    14    1
    23    13    27    1
    24    14    20   ar
    25    14    18   ar
    26    15    24    1
    27    16    23   ar
    28    17    22   ar
    29    18    19   ar
    30    19    21   ar
    31    20    26   ar
    32    21    26   ar
    33    22    25   ar
    34    23    25   ar
    35    24    29   ar
    36    24    30   ar
    37    29    31   ar
    38    30    32   ar
    39    31    33   ar
    40    32    33   ar
