@<TRIPOS>MOLECULE
BOSENTAN_50CONFORMERS.pdb
 39 42 0 0 0
SMALL
GASTEIGER

@<TRIPOS>ATOM
      1  S1        -1.8260    0.8680    2.1150 S.O2    1  LGD1        0.0943
      2  O2        -3.2310    1.0510    2.6420 O.2     1  LGD1       -0.1483
      3  O3        -0.7360    0.8420    3.1650 O.2     1  LGD1       -0.1483
      4  O4        -2.4030   -2.7480   -0.1730 O.3     1  LGD1       -0.4427
      5  O5        -0.5250   -3.7950   -2.0950 O.3     1  LGD1       -0.4552
      6  O6        -2.8550   -0.2480   -1.8440 O.3     1  LGD1       -0.4684
      7  O7        -1.9730   -4.8030   -4.4000 O.3     1  LGD1       -0.2162
      8  N8        -1.8030   -0.6630    1.3420 N.pl3   1  LGD1       -0.0737
      9  N9         0.3910   -0.5170    0.4490 N.ar    1  LGD1       -0.2027
     10  N10        0.9160   -2.0940   -1.3960 N.ar    1  LGD1       -0.1866
     11  N11        2.6710    0.8150   -0.9050 N.ar    1  LGD1       -0.2224
     12  N12        3.5280   -1.4300   -0.5030 N.ar    1  LGD1       -0.2224
     13  C13       -0.5230    4.4800   -2.6490 C.3     1  LGD1        0.0189
     14  C14       -0.8270    3.6580   -1.3880 C.ar    1  LGD1       -0.0227
     15  C15       -1.6210    5.5800   -2.8100 C.3     1  LGD1        0.0044
     16  C16       -0.4680    3.6970   -4.0130 C.3     1  LGD1        0.0044
     17  C17        0.8300    5.1600   -2.6730 C.3     1  LGD1        0.0044
     18  C18        0.1540    3.3630   -0.3720 C.ar    1  LGD1       -0.0029
     19  C19       -2.1270    3.0610   -1.2730 C.ar    1  LGD1       -0.0029
     20  C20       -1.4510    1.9720    0.8310 C.ar    1  LGD1        0.1271
     21  C21       -0.1290    2.4730    0.7040 C.ar    1  LGD1        0.0199
     22  C22       -2.4280    2.2780   -0.1370 C.ar    1  LGD1        0.0199
     23  C23       -0.8140   -1.1840    0.5480 C.ar    1  LGD1        0.2125
     24  C24       -1.1190   -2.2490   -0.2350 C.ar    1  LGD1        0.2327
     25  C25       -0.2610   -2.7270   -1.2750 C.ar    1  LGD1        0.2651
     26  C26        1.1980   -1.0480   -0.5300 C.ar    1  LGD1        0.2028
     27  C27       -3.3080   -2.6450   -1.2120 C.ar    1  LGD1        0.1793
     28  C28        2.5710   -0.4720   -0.5450 C.ar    1  LGD1        0.1990
     29  C29       -0.0310   -3.6890   -3.4570 C.3     1  LGD1        0.2426
     30  C30       -3.5470   -1.4580   -2.0260 C.ar    1  LGD1        0.1730
     31  C31       -4.0820   -3.7780   -1.4710 C.ar    1  LGD1        0.0406
     32  C32       -4.5460   -1.5120   -2.9680 C.ar    1  LGD1        0.0401
     33  C33       -0.5230   -4.8470   -4.3420 C.3     1  LGD1        0.2292
     34  C34       -5.0600   -3.7560   -2.4690 C.ar    1  LGD1        0.0033
     35  C35       -5.2410   -2.6820   -3.2890 C.ar    1  LGD1        0.0033
     36  C36        3.9260    1.3540   -0.9780 C.ar    1  LGD1        0.1023
     37  C37        4.8260   -0.9910   -0.5450 C.ar    1  LGD1        0.1023
     38  C38        4.9700    0.4280   -0.7720 C.ar    1  LGD1        0.0414
     39  C39       -1.9900   -0.1040   -3.0090 C.3     1  LGD1        0.2526
@<TRIPOS>BOND
     1    33     7    1
     2    33    29    1
     3     5    29    1
     4     5    25    1
     5    10    25   ar
     6    10    26   ar
     7    36    11   ar
     8    36    38   ar
     9    11    28   ar
    10    25    24   ar
    11    38    37   ar
    12    34    31   ar
    13    34    35   ar
    14    28    26    1
    15    28    12   ar
    16    26     9   ar
    17    31    27   ar
    18    37    12   ar
    19    24     4    1
    20    24    23   ar
    21     4    27    1
    22    27    30   ar
    23    35    32   ar
    24    15    13    1
    25     9    23   ar
    26    23     8    1
    27    30    32   ar
    28    30     6    1
    29     6    39    1
    30     8     1    1
    31    18    14   ar
    32    18    21   ar
    33    13    14    1
    34    13    17    1
    35    13    16    1
    36    14    19   ar
    37    21    20   ar
    38    20     1    1
    39    20    22   ar
    40    19    22   ar
    41     1     2    2
    42     1     3    2
@<TRIPOS>MOLECULE
01012527H
 38 40 0 0 0
SMALL
GASTEIGER

@<TRIPOS>ATOM
      1 C          -2.2641   -1.9546   -4.9942 C.3     1  LIG11       0.0531
      2 C          -0.8175   -1.8279   -4.5371 C.3     1  LIG11      -0.0111
      3 C          -3.1434   -1.1781   -4.0237 C.3     1  LIG11       0.0375
      4 C          -2.1449   -1.2899   -6.3600 C.2     1  LIG11       0.0509
      5 N          -0.8189   -0.5962   -3.5934 N.3     1  LIG11       0.2448
      6 C          -0.2175   -3.0016   -3.7293 C.3     1  LIG11      -0.0039
      7 C          -3.7774   -2.1091   -2.9951 C.ar    1  LIG11      -0.0313
      8 C          -2.2416   -0.0636   -3.5007 C.3     1  LIG11      -0.0234
      9 O          -1.7932   -2.0658   -7.2836 O.co2   1  LIG11      -0.5493
     10 O          -2.2843   -0.0368   -6.3635 O.co2   1  LIG11      -0.5493
     11 C           0.1705    0.4663   -4.0820 C.3     1  LIG11       0.0465
     12 C           0.2473   -4.2966   -4.4800 C.3     1  LIG11      -0.0298
     13 C          -3.1828   -2.4375   -1.7697 C.ar    1  LIG11      -0.0122
     14 C          -5.0161   -2.7206   -3.3397 C.ar    1  LIG11      -0.0124
     15 C           0.2985    1.6694   -3.1368 C.2     1  LIG11       0.2608
     16 C           1.1221   -5.0967   -3.4569 C.3     1  LIG11      -0.0479
     17 C          -0.9579   -5.1448   -4.9165 C.3     1  LIG11      -0.0596
     18 C           1.0859   -3.9469   -5.7218 C.3     1  LIG11      -0.0596
     19 C          -3.8006   -3.3837   -0.9755 C.ar    1  LIG11       0.1702
     20 C          -5.6484   -3.6420   -2.4948 C.ar    1  LIG11       0.1656
     21 N           1.1629    2.7058   -3.5076 N.am    1  LIG11      -0.2971
     22 O          -0.3538    1.6916   -2.0879 O.2     1  LIG11      -0.2697
     23 C           1.6754   -6.4497   -3.9212 C.3     1  LIG11      -0.0554
     24 C          -4.9930   -3.9727   -1.3246 C.ar    1  LIG11       0.2075
     25 O          -3.3132   -3.8493    0.2072 O.3     1  LIG11      -0.4525
     26 O          -6.8364   -4.2664   -2.7381 O.3     1  LIG11      -0.4913
     27 C           2.2862    2.4997   -4.4390 C.3     1  LIG11       0.0148
     28 C           1.2368    3.8607   -2.6017 C.3     1  LIG11       0.0148
     29 C           2.5979   -7.0542   -2.8704 C.3     1  LIG11      -0.0653
     30 O          -5.4064   -4.8776   -0.3927 O.3     1  LIG11      -0.4489
     31 C          -4.3125   -4.8365    0.5401 C.3     1  LIG11       0.2334
     32 C          -7.6615   -3.6915   -3.7441 C.3     1  LIG11       0.0790
     33 C           2.5438    3.6568   -5.4069 C.3     1  LIG11      -0.0374
     34 C           0.0339    4.8077   -2.7133 C.3     1  LIG11      -0.0374
     35 C           3.6638    3.3596   -6.4090 C.3     1  LIG11      -0.0545
     36 C          -0.0530    5.5167   -4.0656 C.3     1  LIG11      -0.0545
     37 C           5.0246    3.1632   -5.7575 C.3     1  LIG11      -0.0652
     38 C          -1.1756    6.5425   -4.0945 C.3     1  LIG11      -0.0652
@<TRIPOS>BOND
     1     1     2    1
     2     1     3    1
     3     1     4    1
     4     2     5    1
     5     2     6    1
     6     3     8    1
     7     3     7    1
     8     4    10   ar
     9     4     9   ar
    10     5     8    1
    11     5    11    1
    12     6    12    1
    13     7    14   ar
    14     7    13   ar
    15    11    15    1
    16    12    18    1
    17    12    17    1
    18    12    16    1
    19    13    19   ar
    20    14    20   ar
    21    15    22    2
    22    15    21   am
    23    16    23    1
    24    19    25    1
    25    19    24   ar
    26    20    24   ar
    27    20    26    1
    28    21    28    1
    29    21    27    1
    30    23    29    1
    31    24    30    1
    32    25    31    1
    33    26    32    1
    34    27    33    1
    35    28    34    1
    36    30    31    1
    37    33    35    1
    38    34    36    1
    39    35    37    1
    40    36    38    1
