@<TRIPOS>MOLECULE
BOSENTAN_50CONFORMERS.pdb
 39 42 0 0 0
SMALL
GASTEIGER

@<TRIPOS>ATOM
      1  S1        -1.4540    0.1350    2.8770 S.O2    1  LGD1        0.0943
      2  O2        -0.4470   -0.7320    3.5100 O.2     1  LGD1       -0.1483
      3  O3        -1.1360    1.5320    2.4670 O.2     1  LGD1       -0.1483
      4  O4        -2.4110   -2.7360   -0.2730 O.3     1  LGD1       -0.4427
      5  O5        -0.5950   -3.8040   -2.0130 O.3     1  LGD1       -0.4552
      6  O6        -4.9930   -2.6790    0.8890 O.3     1  LGD1       -0.4684
      7  O7        -0.8270   -6.9230   -2.0170 O.3     1  LGD1       -0.2162
      8  N8        -1.8590   -0.6640    1.3890 N.pl3   1  LGD1       -0.0737
      9  N9         0.4300   -0.6670    0.4910 N.ar    1  LGD1       -0.2027
     10  N10        0.9940   -2.0320   -1.4390 N.ar    1  LGD1       -0.1866
     11  N11        2.7460    0.3150   -1.9570 N.ar    1  LGD1       -0.2224
     12  N12        3.2800   -0.2760    0.3910 N.ar    1  LGD1       -0.2224
     13  C13       -6.6430    0.0540    6.2240 C.3     1  LGD1        0.0189
     14  C14       -5.3760    0.0310    5.4090 C.ar    1  LGD1       -0.0227
     15  C15       -7.0060   -1.3190    6.8340 C.3     1  LGD1        0.0044
     16  C16       -7.8140    0.5500    5.3550 C.3     1  LGD1        0.0044
     17  C17       -6.5440    1.0780    7.3190 C.3     1  LGD1        0.0044
     18  C18       -4.9740    1.1330    4.6920 C.ar    1  LGD1       -0.0029
     19  C19       -4.5800   -1.1010    5.2480 C.ar    1  LGD1       -0.0029
     20  C20       -3.0040    0.0570    3.8580 C.ar    1  LGD1        0.1271
     21  C21       -3.7460    1.2330    4.0600 C.ar    1  LGD1        0.0199
     22  C22       -3.4560   -1.1520    4.3510 C.ar    1  LGD1        0.0199
     23  C23       -0.8670   -1.1600    0.5400 C.ar    1  LGD1        0.2125
     24  C24       -1.1210   -2.1950   -0.3360 C.ar    1  LGD1        0.2327
     25  C25       -0.1810   -2.7470   -1.2100 C.ar    1  LGD1        0.2651
     26  C26        1.1810   -1.0080   -0.6150 C.ar    1  LGD1        0.2028
     27  C27       -3.4650   -2.3120   -1.0420 C.ar    1  LGD1        0.1793
     28  C28        2.5460   -0.3110   -0.7600 C.ar    1  LGD1        0.1990
     29  C29        0.3230   -4.8710   -2.0790 C.3     1  LGD1        0.2426
     30  C30       -4.7730   -2.3660   -0.4830 C.ar    1  LGD1        0.1730
     31  C31       -3.2360   -1.6370   -2.2440 C.ar    1  LGD1        0.0406
     32  C32       -5.8020   -1.8680   -1.3660 C.ar    1  LGD1        0.0401
     33  C33       -0.0890   -6.1170   -2.8760 C.3     1  LGD1        0.2292
     34  C34       -4.2080   -1.0020   -3.0290 C.ar    1  LGD1        0.0033
     35  C35       -5.4860   -1.2960   -2.6440 C.ar    1  LGD1        0.0033
     36  C36        3.9100    1.0220   -2.0730 C.ar    1  LGD1        0.1023
     37  C37        4.5070    0.3110    0.2100 C.ar    1  LGD1        0.1023
     38  C38        4.7710    0.9960   -0.9790 C.ar    1  LGD1        0.0414
     39  C39       -5.6270   -1.6200    1.6780 C.3     1  LGD1        0.2526
@<TRIPOS>BOND
     1    33     7    1
     2    33    29    1
     3     5    29    1
     4     5    25    1
     5    10    25   ar
     6    10    26   ar
     7    36    11   ar
     8    36    38   ar
     9    11    28   ar
    10    25    24   ar
    11    38    37   ar
    12    34    31   ar
    13    34    35   ar
    14    28    26    1
    15    28    12   ar
    16    26     9   ar
    17    31    27   ar
    18    37    12   ar
    19    24     4    1
    20    24    23   ar
    21     4    27    1
    22    27    30   ar
    23    35    32   ar
    24    15    13    1
    25     9    23   ar
    26    23     8    1
    27    30    32   ar
    28    30     6    1
    29     6    39    1
    30     8     1    1
    31    18    14   ar
    32    18    21   ar
    33    13    14    1
    34    13    17    1
    35    13    16    1
    36    14    19   ar
    37    21    20   ar
    38    20     1    1
    39    20    22   ar
    40    19    22   ar
    41     1     2    2
    42     1     3    2
@<TRIPOS>MOLECULE
23693553
 46 48 0 0 0
SMALL
GASTEIGER

@<TRIPOS>ATOM
      1 O          -8.3651   -3.4003    7.1543 O.2     1  LIG11      -0.2526
      2 O         -10.0082    0.0990    4.2257 O.2     1  LIG11      -0.2731
      3 O          -6.8663   -1.7027    3.3115 O.2     1  LIG11      -0.2689
      4 O         -10.0728    2.4886    1.4294 O.co2   1  LIG11      -0.5479
      5 OXT        -8.9816    0.5888    0.8164 O.co2   1  LIG11      -0.5479
      6 O          -7.9898   -1.0410   -4.4679 O.3     1  LIG11      -0.4515
      7 O          -5.8475   -1.0055   -5.3398 O.2     1  LIG11      -0.2227
      8 N          -8.3771   -4.7945    5.3036 N.am    1  LIG11      -0.2801
      9 N          -8.4831   -2.4720    5.0853 N.am    1  LIG11      -0.2879
     10 N          -7.8736    0.3499    3.4412 N.am    1  LIG11      -0.2273
     11 N          -6.6352    0.6781    0.4552 N.3     1  LIG11       0.2276
     12 N          -6.2154   -1.4350   -3.1014 N.ar    1  LIG11      -0.2526
     13 C          -8.8001   -5.0006    3.8969 C.3     1  LIG11       0.0249
     14 C          -7.8731   -5.9192    6.1223 C.3     1  LIG11       0.0249
     15 C          -8.4605   -6.3760    3.3131 C.3     1  LIG11      -0.0344
     16 C          -7.3535   -7.1453    5.3455 C.3     1  LIG11      -0.0344
     17 C          -7.1463   -6.8853    3.8670 C.3     1  LIG11      -0.0497
     18 CA         -8.3646   -1.0823    5.5556 C.3     1  LIG11       0.1019
     19 C          -6.8500    0.3467    7.2396 C.3     1  LIG11      -0.0356
     20 C          -6.9834   -0.8123    6.2088 C.3     1  LIG11      -0.0210
     21 C          -8.4302   -3.5448    5.9369 C.2     1  LIG11       0.3033
     22 C         -10.2952   -4.7253    3.7045 C.3     1  LIG11      -0.0464
     23 C          -8.8766   -6.3812    7.1865 C.3     1  LIG11      -0.0464
     24 C          -8.8033   -0.1212    4.3883 C.2     1  LIG11       0.2429
     25 C          -6.7207    1.6887    6.5220 C.3     1  LIG11      -0.0600
     26 C          -8.0313    0.4241    8.2196 C.3     1  LIG11      -0.0600
     27 C          -5.5574    0.1234    8.0519 C.3     1  LIG11      -0.0600
     28 CA         -8.2702    1.6439    2.7967 C.3     1  LIG11       0.0730
     29 C          -8.4021    2.9069    3.6745 C.3     1  LIG11      -0.0286
     30 C          -7.1419   -0.6224    2.7538 C.2     1  LIG11       0.2708
     31 CA         -6.4507   -0.4983    1.3571 C.3     1  LIG11       0.0579
     32 C          -9.6471    3.1102    4.5370 C.3     1  LIG11      -0.0513
     33 C          -6.7994   -1.7925    0.5528 C.3     1  LIG11       0.0261
     34 C          -9.2952    1.5301    1.6275 C.2     1  LIG11       0.0626
     35 C          -6.2825   -1.7616   -0.8574 C.ar    1  LIG11      -0.0158
     36 C          -9.5439    4.3548    5.4336 C.3     1  LIG11      -0.0558
     37 C          -4.9216   -1.7720   -1.2694 C.ar    1  LIG11       0.0038
     38 C          -7.0430   -1.5927   -1.9950 C.ar    1  LIG11       0.0202
     39 C          -4.8952   -1.5291   -2.6475 C.ar    1  LIG11       0.0598
     40 C          -9.2524    5.6487    4.6882 C.3     1  LIG11      -0.0653
     41 C          -3.7040   -1.9094   -0.5683 C.ar    1  LIG11      -0.0523
     42 C          -3.6728   -1.3999   -3.3341 C.ar    1  LIG11      -0.0371
     43 C          -2.4928   -1.7798   -1.2505 C.ar    1  LIG11      -0.0611
     44 C          -6.6394   -1.1584   -4.4228 C.2     1  LIG11       0.4196
     45 C          -2.4802   -1.5222   -2.6141 C.ar    1  LIG11      -0.0598
     46 C          -8.4929   -0.6588   -5.7485 C.3     1  LIG11       0.0835
@<TRIPOS>BOND
     1     1    21    2
     2     2    24    2
     3     3    30    2
     4     4    34   ar
     5     5    34   ar
     6     6    44    1
     7     6    46    1
     8     7    44    2
     9     8    13    1
    10     8    14    1
    11     9    21   am
    12    10    24   am
    13    10    30   am
    14    12    39   ar
    15    12    38   ar
    16    12    44   am
    17    13    15    1
    18    13    22    1
    19    14    16    1
    20    14    23    1
    21    15    17    1
    22    16    17    1
    23    18     9    1
    24    18    24    1
    25    18    20    1
    26    19    20    1
    27    19    27    1
    28    19    26    1
    29    19    25    1
    30    21     8   am
    31    28    34    1
    32    28    29    1
    33    28    10    1
    34    29    32    1
    35    31    33    1
    36    31    11    1
    37    31    30    1
    38    32    36    1
    39    33    35    1
    40    35    38   ar
    41    35    37   ar
    42    36    40    1
    43    37    39   ar
    44    37    41   ar
    45    39    42   ar
    46    41    43   ar
    47    42    45   ar
    48    43    45   ar
