@<TRIPOS>MOLECULE
BOSENTAN_50CONFORMERS.pdb
 39 42 0 0 0
SMALL
GASTEIGER

@<TRIPOS>ATOM
      1  S1        -1.4260    0.2990    2.6550 S.O2    1  LGD1        0.0943
      2  O2        -1.3660    1.6850    2.0670 O.2     1  LGD1       -0.1483
      3  O3        -2.5040    0.0830    3.6090 O.2     1  LGD1       -0.1483
      4  O4        -2.4800   -2.7380   -0.2590 O.3     1  LGD1       -0.4427
      5  O5        -0.5770   -3.7940   -2.0860 O.3     1  LGD1       -0.4552
      6  O6        -4.4040   -4.3140   -1.4350 O.3     1  LGD1       -0.4684
      7  O7        -0.6830   -3.4190   -5.2080 O.3     1  LGD1       -0.2162
      8  N8        -1.7390   -0.7410    1.4630 N.pl3   1  LGD1       -0.0737
      9  N9         0.3290   -0.4760    0.3600 N.ar    1  LGD1       -0.2027
     10  N10        1.0320   -2.1330   -1.3490 N.ar    1  LGD1       -0.1866
     11  N11        3.3330   -0.3710    0.5140 N.ar    1  LGD1       -0.2224
     12  N12        2.9120   -0.0740   -1.8800 N.ar    1  LGD1       -0.2224
     13  C13        4.0730   -0.6310    4.9900 C.3     1  LGD1        0.0189
     14  C14        2.6830   -0.3180    4.4560 C.ar    1  LGD1       -0.0227
     15  C15        4.3450    0.1670    6.3000 C.3     1  LGD1        0.0044
     16  C16        5.2120   -0.3690    4.0340 C.3     1  LGD1        0.0044
     17  C17        4.2790   -2.1100    5.3940 C.3     1  LGD1        0.0044
     18  C18        2.4730    0.6580    3.4640 C.ar    1  LGD1       -0.0029
     19  C19        1.5690   -1.0800    4.9960 C.ar    1  LGD1       -0.0029
     20  C20        0.2010    0.0220    3.3710 C.ar    1  LGD1        0.1271
     21  C21        1.2220    0.9110    2.9330 C.ar    1  LGD1        0.0199
     22  C22        0.2890   -0.9180    4.3910 C.ar    1  LGD1        0.0199
     23  C23       -0.8570   -1.1340    0.4950 C.ar    1  LGD1        0.2125
     24  C24       -1.1820   -2.2180   -0.3340 C.ar    1  LGD1        0.2327
     25  C25       -0.2190   -2.7190   -1.2290 C.ar    1  LGD1        0.2651
     26  C26        1.1960   -1.0610   -0.5120 C.ar    1  LGD1        0.2028
     27  C27       -2.6980   -4.0420    0.2520 C.ar    1  LGD1        0.1793
     28  C28        2.5860   -0.4180   -0.6440 C.ar    1  LGD1        0.1990
     29  C29        0.2990   -4.1530   -3.1820 C.3     1  LGD1        0.2426
     30  C30       -3.8060   -4.7870   -0.2170 C.ar    1  LGD1        0.1730
     31  C31       -1.9880   -4.4760    1.4260 C.ar    1  LGD1        0.0406
     32  C32       -4.1190   -6.0000    0.3710 C.ar    1  LGD1        0.0401
     33  C33        0.4040   -3.1370   -4.3570 C.3     1  LGD1        0.2292
     34  C34       -2.4310   -5.6940    1.9980 C.ar    1  LGD1        0.0033
     35  C35       -3.4770   -6.4420    1.4700 C.ar    1  LGD1        0.0033
     36  C36        4.5340    0.3080    0.4370 C.ar    1  LGD1        0.1023
     37  C37        4.1350    0.4620   -1.9690 C.ar    1  LGD1        0.1023
     38  C38        4.9330    0.6470   -0.8390 C.ar    1  LGD1        0.0414
     39  C39       -3.9480   -5.2130   -2.5330 C.3     1  LGD1        0.2526
@<TRIPOS>BOND
     1    33     7    1
     2    33    29    1
     3     5    29    1
     4     5    25    1
     5    10    25   ar
     6    10    26   ar
     7    36    11   ar
     8    36    38   ar
     9    11    28   ar
    10    25    24   ar
    11    38    37   ar
    12    34    31   ar
    13    34    35   ar
    14    28    26    1
    15    28    12   ar
    16    26     9   ar
    17    31    27   ar
    18    37    12   ar
    19    24     4    1
    20    24    23   ar
    21     4    27    1
    22    27    30   ar
    23    35    32   ar
    24    15    13    1
    25     9    23   ar
    26    23     8    1
    27    30    32   ar
    28    30     6    1
    29     6    39    1
    30     8     1    1
    31    18    14   ar
    32    18    21   ar
    33    13    14    1
    34    13    17    1
    35    13    16    1
    36    14    19   ar
    37    21    20   ar
    38    20     1    1
    39    20    22   ar
    40    19    22   ar
    41     1     2    2
    42     1     3    2
@<TRIPOS>MOLECULE
9871593
 37 40 0 0 0
SMALL
GASTEIGER

@<TRIPOS>ATOM
      1 O          -2.3955   -8.4014    1.6773 O.3     1  LIG11      -0.4526
      2 O          -3.7175   -7.8321   -0.2617 O.3     1  LIG11      -0.4526
      3 O           1.5212   -2.4878   -2.6004 O.3     1  LIG11      -0.4913
      4 O          -2.1500    0.3254   -1.1531 O.3     1  LIG11      -0.4913
      5 O          -0.2277   -0.4233   -3.1582 O.3     1  LIG11      -0.4885
      6 O          -2.2209   -0.9101    3.8117 O.2     1  LIG11      -0.2870
      7 O          -2.5532   -3.5507    5.5541 O.co2   1  LIG11      -0.5446
      8 O          -4.4418   -3.4833    4.2498 O.co2   1  LIG11      -0.5446
      9 O           3.6700    1.3257    3.8785 O.3     1  LIG11      -0.4951
     10 C          -0.2557   -3.2144    1.8251 C.3     1  LIG11       0.0021
     11 C          -1.2506   -2.8997    2.9192 C.2     1  LIG11       0.0135
     12 C          -0.3320   -2.4349    0.5302 C.ar    1  LIG11      -0.0358
     13 C          -2.2991   -3.7012    3.2125 C.2     1  LIG11       0.0117
     14 C          -2.7224   -4.8049    2.3363 C.ar    1  LIG11      -0.0121
     15 C          -1.1926   -1.5566    3.6029 C.2     1  LIG11       0.1901
     16 C          -1.2827   -1.4408    0.2719 C.ar    1  LIG11      -0.0126
     17 C           0.5987   -2.7383   -0.4693 C.ar    1  LIG11      -0.0126
     18 C          -2.3232   -6.1266    2.5632 C.ar    1  LIG11      -0.0084
     19 C          -2.7066   -7.0759    1.6359 C.ar    1  LIG11       0.1668
     20 C          -3.5054   -4.4867    1.1996 C.ar    1  LIG11      -0.0503
     21 C          -3.4597   -6.7536    0.5270 C.ar    1  LIG11       0.1663
     22 C           0.5638   -2.0835   -1.7001 C.ar    1  LIG11       0.1654
     23 C          -1.2818   -0.7152   -0.9316 C.ar    1  LIG11       0.1654
     24 C           0.0923   -0.8268    3.7541 C.ar    1  LIG11       0.0222
     25 C          -0.3650   -1.0558   -1.9463 C.ar    1  LIG11       0.2035
     26 C          -3.8811   -5.4674    0.2809 C.ar    1  LIG11      -0.0156
     27 C          -3.1960   -3.5246    4.4611 C.2     1  LIG11       0.0726
     28 C          -3.0621   -8.8720    0.4898 C.3     1  LIG11       0.2332
     29 C           0.0678    0.5550    3.5087 C.ar    1  LIG11      -0.0475
     30 C           1.2960   -1.4322    4.1113 C.ar    1  LIG11      -0.0475
     31 C           1.2379    1.3146    3.5525 C.ar    1  LIG11      -0.0193
     32 C           2.4724   -0.6693    4.1402 C.ar    1  LIG11      -0.0193
     33 C           2.4529    0.6997    3.8441 C.ar    1  LIG11       0.1201
     34 C           0.9494   -2.9735   -3.8137 C.3     1  LIG11       0.0790
     35 C          -2.7519    0.9195   -0.0055 C.3     1  LIG11       0.0790
     36 C          -1.3881    0.1727   -3.7189 C.3     1  LIG11       0.0791
     37 C           3.6963    2.6794    3.4375 C.3     1  LIG11       0.0788
@<TRIPOS>BOND
     1     1    19    1
     2     1    28    1
     3     2    28    1
     4     2    21    1
     5     3    22    1
     6     3    34    1
     7     4    23    1
     8     4    35    1
     9     5    25    1
    10     5    36    1
    11     6    15    2
    12     7    27   ar
    13     8    27   ar
    14     9    33    1
    15     9    37    1
    16    10    11    1
    17    10    12    1
    18    11    13    2
    19    11    15    1
    20    12    16   ar
    21    12    17   ar
    22    13    14    1
    23    13    27    1
    24    14    20   ar
    25    14    18   ar
    26    15    24    1
    27    16    23   ar
    28    17    22   ar
    29    18    19   ar
    30    19    21   ar
    31    20    26   ar
    32    21    26   ar
    33    22    25   ar
    34    23    25   ar
    35    24    29   ar
    36    24    30   ar
    37    29    31   ar
    38    30    32   ar
    39    31    33   ar
    40    32    33   ar
