@<TRIPOS>MOLECULE
BOSENTAN_50CONFORMERS.pdb
 39 42 0 0 0
SMALL
GASTEIGER

@<TRIPOS>ATOM
      1  S1        -1.7190   -1.1980    3.1480 S.O2    1  LGD1        0.0943
      2  O2        -1.0650   -2.5580    3.0820 O.2     1  LGD1       -0.1483
      3  O3        -1.0440   -0.0940    3.8910 O.2     1  LGD1       -0.1483
      4  O4        -2.4210   -2.9380   -0.3040 O.3     1  LGD1       -0.4427
      5  O5        -0.4360   -3.8110   -2.0740 O.3     1  LGD1       -0.4552
      6  O6        -4.1480   -4.6140    1.0730 O.3     1  LGD1       -0.4684
      7  O7         0.3790   -6.3290   -1.3010 O.3     1  LGD1       -0.2162
      8  N8        -1.7990   -0.6700    1.5370 N.pl3   1  LGD1       -0.0737
      9  N9         0.3940   -0.5880    0.3840 N.ar    1  LGD1       -0.2027
     10  N10        0.9270   -2.1020   -1.4260 N.ar    1  LGD1       -0.1866
     11  N11        3.3820   -0.9880   -1.4720 N.ar    1  LGD1       -0.2224
     12  N12        2.2790    1.1290   -0.8550 N.ar    1  LGD1       -0.2224
     13  C13       -7.5590   -1.0820    4.8620 C.3     1  LGD1        0.0189
     14  C14       -6.1270   -1.0490    4.3390 C.ar    1  LGD1       -0.0227
     15  C15       -8.3990   -2.3140    4.5870 C.3     1  LGD1        0.0044
     16  C16       -8.3430    0.0760    4.2990 C.3     1  LGD1        0.0044
     17  C17       -7.6530   -0.8810    6.4090 C.3     1  LGD1        0.0044
     18  C18       -5.3940    0.1080    3.9290 C.ar    1  LGD1       -0.0029
     19  C19       -5.4270   -2.2600    4.3400 C.ar    1  LGD1       -0.0029
     20  C20       -3.4020   -1.1640    3.6230 C.ar    1  LGD1        0.1271
     21  C21       -4.0470    0.0480    3.5190 C.ar    1  LGD1        0.0199
     22  C22       -4.1070   -2.3380    3.8750 C.ar    1  LGD1        0.0199
     23  C23       -0.8690   -1.1110    0.5130 C.ar    1  LGD1        0.2125
     24  C24       -1.2210   -2.1680   -0.3820 C.ar    1  LGD1        0.2327
     25  C25       -0.2100   -2.7390   -1.1960 C.ar    1  LGD1        0.2651
     26  C26        1.1950   -1.0880   -0.5480 C.ar    1  LGD1        0.2028
     27  C27       -3.7060   -2.5140   -0.0890 C.ar    1  LGD1        0.1793
     28  C28        2.4070   -0.2460   -0.9000 C.ar    1  LGD1        0.1990
     29  C29        0.6550   -4.4970   -2.7390 C.3     1  LGD1        0.2426
     30  C30       -4.5570   -3.3220    0.6690 C.ar    1  LGD1        0.1730
     31  C31       -4.1460   -1.2830   -0.5860 C.ar    1  LGD1        0.0406
     32  C32       -5.7720   -2.8520    1.1050 C.ar    1  LGD1        0.0401
     33  C33        1.3350   -5.4170   -1.7390 C.3     1  LGD1        0.2292
     34  C34       -5.3860   -0.7930   -0.1220 C.ar    1  LGD1        0.0033
     35  C35       -6.1520   -1.5580    0.7430 C.ar    1  LGD1        0.0033
     36  C36        4.4450   -0.3090   -1.9620 C.ar    1  LGD1        0.1023
     37  C37        3.3930    1.7710   -1.2500 C.ar    1  LGD1        0.1023
     38  C38        4.4320    1.0600   -1.7550 C.ar    1  LGD1        0.0414
     39  C39       -4.5040   -5.5700    0.0920 C.3     1  LGD1        0.2526
@<TRIPOS>BOND
     1    33     7    1
     2    33    29    1
     3     5    29    1
     4     5    25    1
     5    10    25   ar
     6    10    26   ar
     7    36    11   ar
     8    36    38   ar
     9    11    28   ar
    10    25    24   ar
    11    38    37   ar
    12    34    31   ar
    13    34    35   ar
    14    28    26    1
    15    28    12   ar
    16    26     9   ar
    17    31    27   ar
    18    37    12   ar
    19    24     4    1
    20    24    23   ar
    21     4    27    1
    22    27    30   ar
    23    35    32   ar
    24    15    13    1
    25     9    23   ar
    26    23     8    1
    27    30    32   ar
    28    30     6    1
    29     6    39    1
    30     8     1    1
    31    18    14   ar
    32    18    21   ar
    33    13    14    1
    34    13    17    1
    35    13    16    1
    36    14    19   ar
    37    21    20   ar
    38    20     1    1
    39    20    22   ar
    40    19    22   ar
    41     1     2    2
    42     1     3    2
@<TRIPOS>MOLECULE
9912992
 34 37 0 0 0
SMALL
GASTEIGER

@<TRIPOS>ATOM
      1 S          -1.4003   -1.0624    3.0580 S.O2    1  LIG11       0.0908
      2 O          -2.3196   -3.1330   -0.1206 O.3     1  LIG11      -0.4435
      3 O          -0.3704   -3.8981   -1.7681 O.3     1  LIG11      -0.4771
      4 O          -0.7584   -2.3618    3.0464 O.2     1  LIG11      -0.1484
      5 O          -0.7829    0.0935    3.6722 O.2     1  LIG11      -0.1484
      6 O          -4.5067   -4.2804    1.4073 O.3     1  LIG11      -0.4914
      7 N          -1.8454   -0.6554    1.4659 N.pl3   1  LIG11      -0.1950
      8 N           0.1578   -0.4354    0.3480 N.ar    1  LIG11      -0.2073
      9 N           0.9587   -2.0396   -1.2157 N.ar    1  LIG11      -0.1899
     10 N          -3.4369   -2.5038    4.0238 N.ar    1  LIG11      -0.2351
     11 N           4.6424    1.4166   -1.1518 N.ar    1  LIG11      -0.2632
     12 C          -0.9594   -1.1688    0.4786 C.ar    1  LIG11       0.1882
     13 C          -1.2191   -2.3297   -0.2292 C.ar    1  LIG11       0.2307
     14 C          -3.0398   -1.2304    3.7874 C.ar    1  LIG11       0.1969
     15 C          -0.1860   -2.7290   -1.0515 C.ar    1  LIG11       0.2638
     16 C           1.0851   -0.9057   -0.5032 C.ar    1  LIG11       0.1659
     17 C          -3.8517   -0.1102    3.9022 C.ar    1  LIG11      -0.0160
     18 C           2.3079   -0.1125   -0.7064 C.ar    1  LIG11       0.0222
     19 C          -3.5846   -2.5951   -0.1751 C.ar    1  LIG11       0.1702
     20 C          -5.6336   -1.6131    4.5258 C.ar    1  LIG11      -0.0322
     21 C          -5.1749   -0.3147    4.2807 C.ar    1  LIG11      -0.0541
     22 C          -4.7231   -2.6606    4.4026 C.ar    1  LIG11       0.0327
     23 C          -4.5949   -3.1700    0.6120 C.ar    1  LIG11       0.1621
     24 C          -3.8822   -1.4838   -0.9795 C.ar    1  LIG11      -0.0157
     25 C          -7.0506   -1.8844    4.9226 C.3     1  LIG11      -0.0383
     26 C           3.4676   -0.6859   -1.2512 C.ar    1  LIG11      -0.0329
     27 C           2.3616    1.2499   -0.3811 C.ar    1  LIG11      -0.0329
     28 C          -5.8478   -2.5484    0.6734 C.ar    1  LIG11      -0.0163
     29 C          -5.1406   -0.8835   -0.9167 C.ar    1  LIG11      -0.0581
     30 C          -6.1190   -1.4054   -0.0765 C.ar    1  LIG11      -0.0581
     31 C           4.5898    0.1031   -1.4483 C.ar    1  LIG11       0.0282
     32 C           3.5274    1.9602   -0.6219 C.ar    1  LIG11       0.0282
     33 C           0.7683   -4.2865   -2.5299 C.3     1  LIG11       0.0805
     34 C          -3.5349   -5.2604    1.0637 C.3     1  LIG11       0.0790
@<TRIPOS>BOND
     1     1     4    2
     2     1     5    2
     3     1     7    1
     4     1    14    1
     5     2    13    1
     6     2    19    1
     7     3    15    1
     8     3    33    1
     9     6    23    1
    10     6    34    1
    11     7    12    1
    12     8    12   ar
    13     8    16   ar
    14     9    15   ar
    15     9    16   ar
    16    10    14   ar
    17    10    22   ar
    18    11    31   ar
    19    11    32   ar
    20    12    13   ar
    21    13    15   ar
    22    14    17   ar
    23    16    18    1
    24    17    21   ar
    25    18    26   ar
    26    18    27   ar
    27    19    23   ar
    28    19    24   ar
    29    20    21   ar
    30    20    22   ar
    31    20    25    1
    32    23    28   ar
    33    24    29   ar
    34    26    31   ar
    35    27    32   ar
    36    28    30   ar
    37    29    30   ar
