@<TRIPOS>MOLECULE
BOSENTAN_50CONFORMERS.pdb
 39 42 0 0 0
SMALL
GASTEIGER

@<TRIPOS>ATOM
      1  S1        -1.8260    0.8680    2.1150 S.O2    1  LGD1        0.0943
      2  O2        -3.2310    1.0510    2.6420 O.2     1  LGD1       -0.1483
      3  O3        -0.7360    0.8420    3.1650 O.2     1  LGD1       -0.1483
      4  O4        -2.4030   -2.7480   -0.1730 O.3     1  LGD1       -0.4427
      5  O5        -0.5250   -3.7950   -2.0950 O.3     1  LGD1       -0.4552
      6  O6        -2.8550   -0.2480   -1.8440 O.3     1  LGD1       -0.4684
      7  O7        -1.9730   -4.8030   -4.4000 O.3     1  LGD1       -0.2162
      8  N8        -1.8030   -0.6630    1.3420 N.pl3   1  LGD1       -0.0737
      9  N9         0.3910   -0.5170    0.4490 N.ar    1  LGD1       -0.2027
     10  N10        0.9160   -2.0940   -1.3960 N.ar    1  LGD1       -0.1866
     11  N11        2.6710    0.8150   -0.9050 N.ar    1  LGD1       -0.2224
     12  N12        3.5280   -1.4300   -0.5030 N.ar    1  LGD1       -0.2224
     13  C13       -0.5230    4.4800   -2.6490 C.3     1  LGD1        0.0189
     14  C14       -0.8270    3.6580   -1.3880 C.ar    1  LGD1       -0.0227
     15  C15       -1.6210    5.5800   -2.8100 C.3     1  LGD1        0.0044
     16  C16       -0.4680    3.6970   -4.0130 C.3     1  LGD1        0.0044
     17  C17        0.8300    5.1600   -2.6730 C.3     1  LGD1        0.0044
     18  C18        0.1540    3.3630   -0.3720 C.ar    1  LGD1       -0.0029
     19  C19       -2.1270    3.0610   -1.2730 C.ar    1  LGD1       -0.0029
     20  C20       -1.4510    1.9720    0.8310 C.ar    1  LGD1        0.1271
     21  C21       -0.1290    2.4730    0.7040 C.ar    1  LGD1        0.0199
     22  C22       -2.4280    2.2780   -0.1370 C.ar    1  LGD1        0.0199
     23  C23       -0.8140   -1.1840    0.5480 C.ar    1  LGD1        0.2125
     24  C24       -1.1190   -2.2490   -0.2350 C.ar    1  LGD1        0.2327
     25  C25       -0.2610   -2.7270   -1.2750 C.ar    1  LGD1        0.2651
     26  C26        1.1980   -1.0480   -0.5300 C.ar    1  LGD1        0.2028
     27  C27       -3.3080   -2.6450   -1.2120 C.ar    1  LGD1        0.1793
     28  C28        2.5710   -0.4720   -0.5450 C.ar    1  LGD1        0.1990
     29  C29       -0.0310   -3.6890   -3.4570 C.3     1  LGD1        0.2426
     30  C30       -3.5470   -1.4580   -2.0260 C.ar    1  LGD1        0.1730
     31  C31       -4.0820   -3.7780   -1.4710 C.ar    1  LGD1        0.0406
     32  C32       -4.5460   -1.5120   -2.9680 C.ar    1  LGD1        0.0401
     33  C33       -0.5230   -4.8470   -4.3420 C.3     1  LGD1        0.2292
     34  C34       -5.0600   -3.7560   -2.4690 C.ar    1  LGD1        0.0033
     35  C35       -5.2410   -2.6820   -3.2890 C.ar    1  LGD1        0.0033
     36  C36        3.9260    1.3540   -0.9780 C.ar    1  LGD1        0.1023
     37  C37        4.8260   -0.9910   -0.5450 C.ar    1  LGD1        0.1023
     38  C38        4.9700    0.4280   -0.7720 C.ar    1  LGD1        0.0414
     39  C39       -1.9900   -0.1040   -3.0090 C.3     1  LGD1        0.2526
@<TRIPOS>BOND
     1    33     7    1
     2    33    29    1
     3     5    29    1
     4     5    25    1
     5    10    25   ar
     6    10    26   ar
     7    36    11   ar
     8    36    38   ar
     9    11    28   ar
    10    25    24   ar
    11    38    37   ar
    12    34    31   ar
    13    34    35   ar
    14    28    26    1
    15    28    12   ar
    16    26     9   ar
    17    31    27   ar
    18    37    12   ar
    19    24     4    1
    20    24    23   ar
    21     4    27    1
    22    27    30   ar
    23    35    32   ar
    24    15    13    1
    25     9    23   ar
    26    23     8    1
    27    30    32   ar
    28    30     6    1
    29     6    39    1
    30     8     1    1
    31    18    14   ar
    32    18    21   ar
    33    13    14    1
    34    13    17    1
    35    13    16    1
    36    14    19   ar
    37    21    20   ar
    38    20     1    1
    39    20    22   ar
    40    19    22   ar
    41     1     2    2
    42     1     3    2
@<TRIPOS>MOLECULE
11672244
 53 58 0 0 0
SMALL
GASTEIGER

@<TRIPOS>ATOM
      1 O          -1.0575    1.8998   -3.4819 O.3     1  LIG11      -0.4607
      2 O          -4.8334    3.5003    2.4354 O.2     1  LIG11      -0.2968
      3 O           1.2868    7.5344   -5.7112 O.co2   1  LIG11      -0.5492
      4 O           0.6769    6.6665   -7.7167 O.co2   1  LIG11      -0.5492
      5 O          -0.3882    1.0162   -5.5028 O.2     1  LIG11      -0.2456
      6 O          -7.2115   -1.6005   -2.1079 O.3     1  LIG11      -0.5067
      7 O          -2.0791   -5.4877   -3.2341 O.2     1  LIG11      -0.2705
      8 O           2.7814   -4.4203   -2.9824 O.co2   1  LIG11      -0.5452
      9 O           2.9101   -3.7443   -5.1635 O.co2   1  LIG11      -0.5452
     10 N          -1.9403   -3.1538   -3.1664 N.am    1  LIG11      -0.2815
     11 C          -1.7099    5.0021   -3.1625 C.3     1  LIG11      -0.0160
     12 C          -1.3398    5.1098   -1.6373 C.3     1  LIG11      -0.0256
     13 C          -0.4218    4.3514   -3.9524 C.3     1  LIG11       0.0318
     14 C          -2.5312    5.3619   -0.6013 C.3     1  LIG11      -0.0243
     15 C          -3.6659    4.3294   -0.9299 C.3     1  LIG11      -0.0235
     16 C          -3.0075    4.1730   -3.3597 C.3     1  LIG11      -0.0461
     17 C           0.8592    5.1717   -3.6265 C.2     1  LIG11      -0.0596
     18 C           2.0424    5.0121   -4.6053 C.3     1  LIG11      -0.0080
     19 C          -4.1394    4.5034   -2.3873 C.3     1  LIG11      -0.0483
     20 C          -0.7139    4.3539   -5.4847 C.3     1  LIG11      -0.0392
     21 C          -0.1210    6.0434   -1.4514 C.3     1  LIG11      -0.0306
     22 C           1.6301    5.1755   -6.0868 C.3     1  LIG11       0.0167
     23 C          -4.8284    4.1985    0.1111 C.3     1  LIG11       0.0267
     24 C          -2.0102    5.0270    0.8269 C.3     1  LIG11      -0.0404
     25 C           0.5037    4.1598   -6.3890 C.3     1  LIG11      -0.0408
     26 C          -2.0177    6.4244   -3.7441 C.3     1  LIG11      -0.0584
     27 C           0.9436    5.9052   -2.4978 C.2     1  LIG11      -0.0835
     28 C          -0.0194    2.8884   -3.5014 C.3     1  LIG11       0.1025
     29 C          -3.0270    6.8287   -0.5897 C.3     1  LIG11      -0.0590
     30 C           3.3441    5.7795   -4.2564 C.3     1  LIG11      -0.0405
     31 C           2.8285    4.8379   -7.0107 C.3     1  LIG11      -0.0412
     32 C          -3.0887    5.0116    1.9001 C.3     1  LIG11       0.0069
     33 C           4.5303    5.4609   -5.1978 C.3     1  LIG11      -0.0343
     34 C          -4.2641    4.1353    1.5417 C.2     1  LIG11       0.1392
     35 C           4.0970    5.6192   -6.6674 C.3     1  LIG11      -0.0470
     36 C          -5.8747    5.3212    0.0577 C.3     1  LIG11      -0.0528
     37 C          -5.5791    2.8614   -0.1358 C.3     1  LIG11      -0.0528
     38 C           1.1480    6.5938   -6.5421 C.2     1  LIG11       0.0485
     39 C           5.6784    6.4469   -4.9075 C.3     1  LIG11      -0.0598
     40 C           5.0646    4.0368   -4.9360 C.3     1  LIG11      -0.0598
     41 C          -1.0679    0.9980   -4.4898 C.2     1  LIG11       0.3320
     42 C          -2.0430   -0.0825   -4.2356 C.2     1  LIG11       0.0231
     43 C          -2.6440   -0.2942   -3.0548 C.2     1  LIG11      -0.0460
     44 C          -3.6120   -1.3847   -2.8606 C.ar    1  LIG11      -0.0001
     45 C          -3.2864   -2.7602   -2.9466 C.ar    1  LIG11       0.0411
     46 C          -4.9329   -0.9909   -2.5715 C.ar    1  LIG11      -0.0113
     47 C          -4.3137   -3.6977   -2.7663 C.ar    1  LIG11      -0.0364
     48 C          -5.9232   -1.9488   -2.3880 C.ar    1  LIG11       0.1175
     49 C          -5.6235   -3.2963   -2.4884 C.ar    1  LIG11      -0.0184
     50 C          -1.4460   -4.4392   -3.2548 C.2     1  LIG11       0.2411
     51 C           0.0331   -4.4940   -3.2691 C.2     1  LIG11       0.0021
     52 C           0.8044   -3.8350   -4.1458 C.2     1  LIG11      -0.0344
     53 C           2.3159   -4.0226   -4.0863 C.2     1  LIG11       0.0647
@<TRIPOS>BOND
     1     1    41    1
     2     1    28    1
     3     2    34    2
     4     3    38   ar
     5     4    38   ar
     6     5    41    2
     7     6    48    1
     8     7    50    2
     9     8    53   ar
    10     9    53   ar
    11    10    45    1
    12    10    50   am
    13    11    16    1
    14    11    12    1
    15    11    26    1
    16    11    13    1
    17    12    14    1
    18    13    20    1
    19    13    17    1
    20    13    28    1
    21    14    15    1
    22    14    24    1
    23    14    29    1
    24    15    19    1
    25    15    23    1
    26    16    19    1
    27    17    18    1
    28    17    27    2
    29    18    30    1
    30    18    22    1
    31    20    25    1
    32    21    27    1
    33    21    12    1
    34    22    31    1
    35    22    25    1
    36    22    38    1
    37    23    34    1
    38    23    37    1
    39    23    36    1
    40    24    32    1
    41    30    33    1
    42    31    35    1
    43    32    34    1
    44    33    35    1
    45    33    40    1
    46    33    39    1
    47    41    42    1
    48    42    43    2
    49    43    44    1
    50    44    46   ar
    51    44    45   ar
    52    45    47   ar
    53    46    48   ar
    54    47    49   ar
    55    48    49   ar
    56    50    51    1
    57    51    52    2
    58    52    53    1
