@<TRIPOS>MOLECULE
BOSENTAN_50CONFORMERS.pdb
 39 42 0 0 0
SMALL
GASTEIGER

@<TRIPOS>ATOM
      1  S1        -1.4260    0.2990    2.6550 S.O2    1  LGD1        0.0943
      2  O2        -1.3660    1.6850    2.0670 O.2     1  LGD1       -0.1483
      3  O3        -2.5040    0.0830    3.6090 O.2     1  LGD1       -0.1483
      4  O4        -2.4800   -2.7380   -0.2590 O.3     1  LGD1       -0.4427
      5  O5        -0.5770   -3.7940   -2.0860 O.3     1  LGD1       -0.4552
      6  O6        -4.4040   -4.3140   -1.4350 O.3     1  LGD1       -0.4684
      7  O7        -0.6830   -3.4190   -5.2080 O.3     1  LGD1       -0.2162
      8  N8        -1.7390   -0.7410    1.4630 N.pl3   1  LGD1       -0.0737
      9  N9         0.3290   -0.4760    0.3600 N.ar    1  LGD1       -0.2027
     10  N10        1.0320   -2.1330   -1.3490 N.ar    1  LGD1       -0.1866
     11  N11        3.3330   -0.3710    0.5140 N.ar    1  LGD1       -0.2224
     12  N12        2.9120   -0.0740   -1.8800 N.ar    1  LGD1       -0.2224
     13  C13        4.0730   -0.6310    4.9900 C.3     1  LGD1        0.0189
     14  C14        2.6830   -0.3180    4.4560 C.ar    1  LGD1       -0.0227
     15  C15        4.3450    0.1670    6.3000 C.3     1  LGD1        0.0044
     16  C16        5.2120   -0.3690    4.0340 C.3     1  LGD1        0.0044
     17  C17        4.2790   -2.1100    5.3940 C.3     1  LGD1        0.0044
     18  C18        2.4730    0.6580    3.4640 C.ar    1  LGD1       -0.0029
     19  C19        1.5690   -1.0800    4.9960 C.ar    1  LGD1       -0.0029
     20  C20        0.2010    0.0220    3.3710 C.ar    1  LGD1        0.1271
     21  C21        1.2220    0.9110    2.9330 C.ar    1  LGD1        0.0199
     22  C22        0.2890   -0.9180    4.3910 C.ar    1  LGD1        0.0199
     23  C23       -0.8570   -1.1340    0.4950 C.ar    1  LGD1        0.2125
     24  C24       -1.1820   -2.2180   -0.3340 C.ar    1  LGD1        0.2327
     25  C25       -0.2190   -2.7190   -1.2290 C.ar    1  LGD1        0.2651
     26  C26        1.1960   -1.0610   -0.5120 C.ar    1  LGD1        0.2028
     27  C27       -2.6980   -4.0420    0.2520 C.ar    1  LGD1        0.1793
     28  C28        2.5860   -0.4180   -0.6440 C.ar    1  LGD1        0.1990
     29  C29        0.2990   -4.1530   -3.1820 C.3     1  LGD1        0.2426
     30  C30       -3.8060   -4.7870   -0.2170 C.ar    1  LGD1        0.1730
     31  C31       -1.9880   -4.4760    1.4260 C.ar    1  LGD1        0.0406
     32  C32       -4.1190   -6.0000    0.3710 C.ar    1  LGD1        0.0401
     33  C33        0.4040   -3.1370   -4.3570 C.3     1  LGD1        0.2292
     34  C34       -2.4310   -5.6940    1.9980 C.ar    1  LGD1        0.0033
     35  C35       -3.4770   -6.4420    1.4700 C.ar    1  LGD1        0.0033
     36  C36        4.5340    0.3080    0.4370 C.ar    1  LGD1        0.1023
     37  C37        4.1350    0.4620   -1.9690 C.ar    1  LGD1        0.1023
     38  C38        4.9330    0.6470   -0.8390 C.ar    1  LGD1        0.0414
     39  C39       -3.9480   -5.2130   -2.5330 C.3     1  LGD1        0.2526
@<TRIPOS>BOND
     1    33     7    1
     2    33    29    1
     3     5    29    1
     4     5    25    1
     5    10    25   ar
     6    10    26   ar
     7    36    11   ar
     8    36    38   ar
     9    11    28   ar
    10    25    24   ar
    11    38    37   ar
    12    34    31   ar
    13    34    35   ar
    14    28    26    1
    15    28    12   ar
    16    26     9   ar
    17    31    27   ar
    18    37    12   ar
    19    24     4    1
    20    24    23   ar
    21     4    27    1
    22    27    30   ar
    23    35    32   ar
    24    15    13    1
    25     9    23   ar
    26    23     8    1
    27    30    32   ar
    28    30     6    1
    29     6    39    1
    30     8     1    1
    31    18    14   ar
    32    18    21   ar
    33    13    14    1
    34    13    17    1
    35    13    16    1
    36    14    19   ar
    37    21    20   ar
    38    20     1    1
    39    20    22   ar
    40    19    22   ar
    41     1     2    2
    42     1     3    2
@<TRIPOS>MOLECULE
01012527H
 38 40 0 0 0
SMALL
GASTEIGER

@<TRIPOS>ATOM
      1 C          -0.0088   -6.8226   -0.2739 C.3     1  LIG11       0.0531
      2 C           1.0492   -5.7609   -0.5459 C.3     1  LIG11      -0.0111
      3 C          -0.5961   -6.5857    1.1099 C.3     1  LIG11       0.0375
      4 C           0.8830   -8.0589   -0.3101 C.2     1  LIG11       0.0509
      5 N           1.2864   -5.0847    0.8236 N.3     1  LIG11       0.2448
      6 C           0.6621   -4.6369   -1.5348 C.3     1  LIG11      -0.0039
      7 C          -1.9440   -5.8757    1.0472 C.ar    1  LIG11      -0.0313
      8 C           0.5062   -5.8610    1.8734 C.3     1  LIG11      -0.0234
      9 O           1.5706   -8.2543    0.7303 O.co2   1  LIG11      -0.5493
     10 O           0.9074   -8.6507   -1.4169 O.co2   1  LIG11      -0.5493
     11 C           2.7705   -4.9791    1.1695 C.3     1  LIG11       0.0465
     12 C           0.7131   -4.9425   -3.0666 C.3     1  LIG11      -0.0298
     13 C          -3.1071   -6.6644    1.0503 C.ar    1  LIG11      -0.0122
     14 C          -2.0903   -4.4732    0.9700 C.ar    1  LIG11      -0.0124
     15 C           3.0089   -4.1250    2.4252 C.2     1  LIG11       0.2608
     16 C           0.6196   -3.5987   -3.8638 C.3     1  LIG11      -0.0479
     17 C          -0.5001   -5.7949   -3.4936 C.3     1  LIG11      -0.0596
     18 C           1.9944   -5.6979   -3.4610 C.3     1  LIG11      -0.0596
     19 C          -4.3365   -6.0369    1.0044 C.ar    1  LIG11       0.1702
     20 C          -3.3502   -3.8536    0.8873 C.ar    1  LIG11       0.1656
     21 N           4.3047   -3.9889    2.9053 N.am    1  LIG11      -0.2971
     22 O           2.0443   -3.5779    2.9689 O.2     1  LIG11      -0.2697
     23 C           1.8484   -2.6811   -3.7896 C.3     1  LIG11      -0.0554
     24 C          -4.4658   -4.6679    0.9245 C.ar    1  LIG11       0.2075
     25 O          -5.5352   -6.6809    1.0382 O.3     1  LIG11      -0.4525
     26 O          -3.2997   -2.4928    0.7897 O.3     1  LIG11      -0.4913
     27 C           5.5113   -4.4821    2.2243 C.3     1  LIG11       0.0148
     28 C           4.4813   -3.3253    4.2034 C.3     1  LIG11       0.0148
     29 C           1.6382   -1.4089   -4.5990 C.3     1  LIG11      -0.0653
     30 O          -5.7760   -4.2942    0.9014 O.3     1  LIG11      -0.4489
     31 C          -6.4426   -5.5664    1.0095 C.3     1  LIG11       0.2334
     32 C          -4.5162   -1.8261    0.4742 C.3     1  LIG11       0.0790
     33 C           6.4770   -3.3524    1.8561 C.3     1  LIG11      -0.0374
     34 C           4.3558   -1.8012    4.1214 C.3     1  LIG11      -0.0374
     35 C           7.6645   -3.8585    1.0387 C.3     1  LIG11      -0.0545
     36 C           4.6092   -1.1551    5.4831 C.3     1  LIG11      -0.0545
     37 C           8.6685   -2.7451    0.7789 C.3     1  LIG11      -0.0652
     38 C           4.4172    0.3519    5.4279 C.3     1  LIG11      -0.0652
@<TRIPOS>BOND
     1     1     2    1
     2     1     3    1
     3     1     4    1
     4     2     5    1
     5     2     6    1
     6     3     8    1
     7     3     7    1
     8     4    10   ar
     9     4     9   ar
    10     5     8    1
    11     5    11    1
    12     6    12    1
    13     7    14   ar
    14     7    13   ar
    15    11    15    1
    16    12    18    1
    17    12    17    1
    18    12    16    1
    19    13    19   ar
    20    14    20   ar
    21    15    22    2
    22    15    21   am
    23    16    23    1
    24    19    25    1
    25    19    24   ar
    26    20    24   ar
    27    20    26    1
    28    21    28    1
    29    21    27    1
    30    23    29    1
    31    24    30    1
    32    25    31    1
    33    26    32    1
    34    27    33    1
    35    28    34    1
    36    30    31    1
    37    33    35    1
    38    34    36    1
    39    35    37    1
    40    36    38    1
