@<TRIPOS>MOLECULE
BOSENTAN_50CONFORMERS.pdb
 39 42 0 0 0
SMALL
GASTEIGER

@<TRIPOS>ATOM
      1  S1        -1.7750   -1.4220    3.0310 S.O2    1  LGD1        0.0943
      2  O2        -0.3720   -1.8370    3.2830 O.2     1  LGD1       -0.1483
      3  O3        -2.4380   -0.3710    3.8160 O.2     1  LGD1       -0.1483
      4  O4        -2.4990   -2.5420   -0.3450 O.3     1  LGD1       -0.4427
      5  O5        -0.5620   -3.8260   -1.9310 O.3     1  LGD1       -0.4552
      6  O6        -4.2670   -4.6770   -0.4750 O.3     1  LGD1       -0.4684
      7  O7        -0.4520   -5.9720   -4.1090 O.3     1  LGD1       -0.2162
      8  N8        -1.8060   -0.8820    1.3950 N.pl3   1  LGD1       -0.0737
      9  N9         0.4440   -0.5550    0.4500 N.ar    1  LGD1       -0.2027
     10  N10        0.9780   -2.1070   -1.3780 N.ar    1  LGD1       -0.1866
     11  N11        2.9100    0.1650   -1.9740 N.ar    1  LGD1       -0.2224
     12  N12        3.2540   -0.2020    0.5040 N.ar    1  LGD1       -0.2224
     13  C13       -5.7970   -6.1310    3.1490 C.3     1  LGD1        0.0189
     14  C14       -4.7580   -4.9650    3.1310 C.ar    1  LGD1       -0.0227
     15  C15       -5.8640   -6.7090    4.5340 C.3     1  LGD1        0.0044
     16  C16       -5.3460   -7.2180    2.1240 C.3     1  LGD1        0.0044
     17  C17       -7.2000   -5.6790    2.6790 C.3     1  LGD1        0.0044
     18  C18       -5.1530   -3.6270    3.0320 C.ar    1  LGD1       -0.0029
     19  C19       -3.3580   -5.1810    3.1990 C.ar    1  LGD1       -0.0029
     20  C20       -2.8730   -2.8300    3.0340 C.ar    1  LGD1        0.1271
     21  C21       -4.2750   -2.5730    2.9300 C.ar    1  LGD1        0.0199
     22  C22       -2.3600   -4.1460    3.1780 C.ar    1  LGD1        0.0199
     23  C23       -0.8300   -1.1160    0.4760 C.ar    1  LGD1        0.2125
     24  C24       -1.1910   -2.0920   -0.4040 C.ar    1  LGD1        0.2327
     25  C25       -0.2650   -2.6710   -1.2180 C.ar    1  LGD1        0.2651
     26  C26        1.2140   -1.0290   -0.5830 C.ar    1  LGD1        0.2028
     27  C27       -3.4290   -2.5360   -1.4160 C.ar    1  LGD1        0.1793
     28  C28        2.5990   -0.3710   -0.6660 C.ar    1  LGD1        0.1990
     29  C29        0.5560   -4.7090   -2.1780 C.3     1  LGD1        0.2426
     30  C30       -4.3080   -3.6170   -1.4650 C.ar    1  LGD1        0.1730
     31  C31       -3.3310   -1.5990   -2.4080 C.ar    1  LGD1        0.0406
     32  C32       -5.2210   -3.7040   -2.5240 C.ar    1  LGD1        0.0401
     33  C33        0.0030   -6.1020   -2.7250 C.3     1  LGD1        0.2292
     34  C34       -4.2120   -1.6650   -3.5220 C.ar    1  LGD1        0.0033
     35  C35       -5.1090   -2.7550   -3.5920 C.ar    1  LGD1        0.0033
     36  C36        4.0700    0.7320   -2.0500 C.ar    1  LGD1        0.1023
     37  C37        4.4290    0.4460    0.3750 C.ar    1  LGD1        0.1023
     38  C38        4.8450    0.9400   -0.9080 C.ar    1  LGD1        0.0414
     39  C39       -3.1530   -5.5360   -0.5240 C.3     1  LGD1        0.2526
@<TRIPOS>BOND
     1    33     7    1
     2    33    29    1
     3     5    29    1
     4     5    25    1
     5    10    25   ar
     6    10    26   ar
     7    36    11   ar
     8    36    38   ar
     9    11    28   ar
    10    25    24   ar
    11    38    37   ar
    12    34    31   ar
    13    34    35   ar
    14    28    26    1
    15    28    12   ar
    16    26     9   ar
    17    31    27   ar
    18    37    12   ar
    19    24     4    1
    20    24    23   ar
    21     4    27    1
    22    27    30   ar
    23    35    32   ar
    24    15    13    1
    25     9    23   ar
    26    23     8    1
    27    30    32   ar
    28    30     6    1
    29     6    39    1
    30     8     1    1
    31    18    14   ar
    32    18    21   ar
    33    13    14    1
    34    13    17    1
    35    13    16    1
    36    14    19   ar
    37    21    20   ar
    38    20     1    1
    39    20    22   ar
    40    19    22   ar
    41     1     2    2
    42     1     3    2
@<TRIPOS>MOLECULE
9912992
 34 37 0 0 0
SMALL
GASTEIGER

@<TRIPOS>ATOM
      1 S          -0.5167   -3.3049    2.4273 S.O2    1  LIG11       0.0908
      2 O          -2.0746   -2.8700   -0.6167 O.3     1  LIG11      -0.4435
      3 O          -0.5449   -2.6672   -3.0235 O.3     1  LIG11      -0.4771
      4 O           0.2089   -2.9563    3.6333 O.2     1  LIG11      -0.1484
      5 O           0.0321   -4.1962    1.4255 O.2     1  LIG11      -0.1484
      6 O          -3.5933   -5.0940   -1.8405 O.3     1  LIG11      -0.4914
      7 N          -0.8781   -1.7982    1.7037 N.pl3   1  LIG11      -0.1950
      8 N           0.8429   -0.9808    0.4473 N.ar    1  LIG11      -0.2073
      9 N           1.0504   -1.3777   -1.8894 N.ar    1  LIG11      -0.1899
     10 N          -2.0451   -5.1900    3.4707 N.ar    1  LIG11      -0.2351
     11 N           5.2264    1.2392   -0.7447 N.ar    1  LIG11      -0.2632
     12 C          -0.3122   -1.6582    0.4063 C.ar    1  LIG11       0.1882
     13 C          -0.8826   -2.2069   -0.7245 C.ar    1  LIG11       0.2307
     14 C          -2.1140   -3.9473    2.9234 C.ar    1  LIG11       0.1969
     15 C          -0.1119   -2.0645   -1.8601 C.ar    1  LIG11       0.2638
     16 C           1.4882   -0.8689   -0.7245 C.ar    1  LIG11       0.1659
     17 C          -3.2894   -3.2395    2.7291 C.ar    1  LIG11      -0.0160
     18 C           2.7679   -0.1472   -0.7319 C.ar    1  LIG11       0.0222
     19 C          -3.0290   -2.6716   -1.5897 C.ar    1  LIG11       0.1702
     20 C          -4.4541   -5.1293    3.6857 C.ar    1  LIG11      -0.0322
     21 C          -4.4788   -3.8494    3.1231 C.ar    1  LIG11      -0.0541
     22 C          -3.2164   -5.7461    3.8411 C.ar    1  LIG11       0.0327
     23 C          -3.7217   -3.7632   -2.1331 C.ar    1  LIG11       0.1621
     24 C          -3.3501   -1.3654   -2.0031 C.ar    1  LIG11      -0.0157
     25 C          -5.7041   -5.8203    4.1315 C.3     1  LIG11      -0.0383
     26 C           3.5643   -0.0626    0.4194 C.ar    1  LIG11      -0.0329
     27 C           3.2454    0.4809   -1.8909 C.ar    1  LIG11      -0.0329
     28 C          -4.6735   -3.5249   -3.1357 C.ar    1  LIG11      -0.0163
     29 C          -4.3016   -1.1485   -2.9999 C.ar    1  LIG11      -0.0581
     30 C          -4.9587   -2.2308   -3.5732 C.ar    1  LIG11      -0.0581
     31 C           4.7660    0.6248    0.3636 C.ar    1  LIG11       0.0282
     32 C           4.4562    1.1533   -1.8477 C.ar    1  LIG11       0.0282
     33 C           0.3670   -2.5616   -4.1101 C.3     1  LIG11       0.0805
     34 C          -2.8190   -5.4775   -0.7139 C.3     1  LIG11       0.0790
@<TRIPOS>BOND
     1     1     4    2
     2     1     5    2
     3     1     7    1
     4     1    14    1
     5     2    13    1
     6     2    19    1
     7     3    15    1
     8     3    33    1
     9     6    23    1
    10     6    34    1
    11     7    12    1
    12     8    12   ar
    13     8    16   ar
    14     9    15   ar
    15     9    16   ar
    16    10    14   ar
    17    10    22   ar
    18    11    31   ar
    19    11    32   ar
    20    12    13   ar
    21    13    15   ar
    22    14    17   ar
    23    16    18    1
    24    17    21   ar
    25    18    26   ar
    26    18    27   ar
    27    19    23   ar
    28    19    24   ar
    29    20    21   ar
    30    20    22   ar
    31    20    25    1
    32    23    28   ar
    33    24    29   ar
    34    26    31   ar
    35    27    32   ar
    36    28    30   ar
    37    29    30   ar
