@<TRIPOS>MOLECULE
BOSENTAN_50CONFORMERS.pdb
 39 42 0 0 0
SMALL
GASTEIGER

@<TRIPOS>ATOM
      1  S1        -1.8260    0.8680    2.1150 S.O2    1  LGD1        0.0943
      2  O2        -3.2310    1.0510    2.6420 O.2     1  LGD1       -0.1483
      3  O3        -0.7360    0.8420    3.1650 O.2     1  LGD1       -0.1483
      4  O4        -2.4030   -2.7480   -0.1730 O.3     1  LGD1       -0.4427
      5  O5        -0.5250   -3.7950   -2.0950 O.3     1  LGD1       -0.4552
      6  O6        -2.8550   -0.2480   -1.8440 O.3     1  LGD1       -0.4684
      7  O7        -1.9730   -4.8030   -4.4000 O.3     1  LGD1       -0.2162
      8  N8        -1.8030   -0.6630    1.3420 N.pl3   1  LGD1       -0.0737
      9  N9         0.3910   -0.5170    0.4490 N.ar    1  LGD1       -0.2027
     10  N10        0.9160   -2.0940   -1.3960 N.ar    1  LGD1       -0.1866
     11  N11        2.6710    0.8150   -0.9050 N.ar    1  LGD1       -0.2224
     12  N12        3.5280   -1.4300   -0.5030 N.ar    1  LGD1       -0.2224
     13  C13       -0.5230    4.4800   -2.6490 C.3     1  LGD1        0.0189
     14  C14       -0.8270    3.6580   -1.3880 C.ar    1  LGD1       -0.0227
     15  C15       -1.6210    5.5800   -2.8100 C.3     1  LGD1        0.0044
     16  C16       -0.4680    3.6970   -4.0130 C.3     1  LGD1        0.0044
     17  C17        0.8300    5.1600   -2.6730 C.3     1  LGD1        0.0044
     18  C18        0.1540    3.3630   -0.3720 C.ar    1  LGD1       -0.0029
     19  C19       -2.1270    3.0610   -1.2730 C.ar    1  LGD1       -0.0029
     20  C20       -1.4510    1.9720    0.8310 C.ar    1  LGD1        0.1271
     21  C21       -0.1290    2.4730    0.7040 C.ar    1  LGD1        0.0199
     22  C22       -2.4280    2.2780   -0.1370 C.ar    1  LGD1        0.0199
     23  C23       -0.8140   -1.1840    0.5480 C.ar    1  LGD1        0.2125
     24  C24       -1.1190   -2.2490   -0.2350 C.ar    1  LGD1        0.2327
     25  C25       -0.2610   -2.7270   -1.2750 C.ar    1  LGD1        0.2651
     26  C26        1.1980   -1.0480   -0.5300 C.ar    1  LGD1        0.2028
     27  C27       -3.3080   -2.6450   -1.2120 C.ar    1  LGD1        0.1793
     28  C28        2.5710   -0.4720   -0.5450 C.ar    1  LGD1        0.1990
     29  C29       -0.0310   -3.6890   -3.4570 C.3     1  LGD1        0.2426
     30  C30       -3.5470   -1.4580   -2.0260 C.ar    1  LGD1        0.1730
     31  C31       -4.0820   -3.7780   -1.4710 C.ar    1  LGD1        0.0406
     32  C32       -4.5460   -1.5120   -2.9680 C.ar    1  LGD1        0.0401
     33  C33       -0.5230   -4.8470   -4.3420 C.3     1  LGD1        0.2292
     34  C34       -5.0600   -3.7560   -2.4690 C.ar    1  LGD1        0.0033
     35  C35       -5.2410   -2.6820   -3.2890 C.ar    1  LGD1        0.0033
     36  C36        3.9260    1.3540   -0.9780 C.ar    1  LGD1        0.1023
     37  C37        4.8260   -0.9910   -0.5450 C.ar    1  LGD1        0.1023
     38  C38        4.9700    0.4280   -0.7720 C.ar    1  LGD1        0.0414
     39  C39       -1.9900   -0.1040   -3.0090 C.3     1  LGD1        0.2526
@<TRIPOS>BOND
     1    33     7    1
     2    33    29    1
     3     5    29    1
     4     5    25    1
     5    10    25   ar
     6    10    26   ar
     7    36    11   ar
     8    36    38   ar
     9    11    28   ar
    10    25    24   ar
    11    38    37   ar
    12    34    31   ar
    13    34    35   ar
    14    28    26    1
    15    28    12   ar
    16    26     9   ar
    17    31    27   ar
    18    37    12   ar
    19    24     4    1
    20    24    23   ar
    21     4    27    1
    22    27    30   ar
    23    35    32   ar
    24    15    13    1
    25     9    23   ar
    26    23     8    1
    27    30    32   ar
    28    30     6    1
    29     6    39    1
    30     8     1    1
    31    18    14   ar
    32    18    21   ar
    33    13    14    1
    34    13    17    1
    35    13    16    1
    36    14    19   ar
    37    21    20   ar
    38    20     1    1
    39    20    22   ar
    40    19    22   ar
    41     1     2    2
    42     1     3    2
@<TRIPOS>MOLECULE
16219006
 44 47 0 0 0
SMALL
GASTEIGER

@<TRIPOS>ATOM
      1 O           3.0371    0.6522   -7.4132 O.2     1  PRO11      -0.2738
      2 O           1.3830   -1.5878   -4.1721 O.2     5  ASP55      -0.2735
      3 O           1.7684    1.6462   -2.8162 O.2     2  VAL22      -0.2738
      4 O          -2.9081   -1.5184   -6.4829 O.2     4  TRP44      -0.2738
      5 O          -1.2726    2.2884   -6.2803 O.2     3  LEU33      -0.2738
      6 OD1         0.4708   -4.9500   -5.1663 O.co2   5  ASP55      -0.5497
      7 OD2         0.1260   -5.5357   -2.9910 O.co2   5  ASP55      -0.5497
      8 N           1.2481   -1.9342   -6.4086 N.am    1  PRO11      -0.2884
      9 N           3.0902    0.2639   -5.1581 N.am    2  VAL22      -0.3022
     10 N          -1.4896   -1.3522   -4.6858 N.am    5  ASP55      -0.3021
     11 N           1.0163    2.7130   -4.6937 N.am    3  LEU33      -0.3025
     12 N          -2.1685    1.3445   -4.3894 N.am    4  TRP44      -0.3022
     13 NE1        -3.7927   -0.8166   -0.8678 N.ar    4  TRP44      -0.3604
     14 CA          2.6636   -1.6461   -6.6291 C.3     1  PRO11       0.1023
     15 CB          2.9407   -2.1578   -8.0454 C.3     1  PRO11      -0.0243
     16 CG          1.5791   -2.0885   -8.7262 C.3     1  PRO11      -0.0350
     17 CD          0.6247   -2.4681   -7.6067 C.3     1  PRO11       0.0156
     18 C           2.9495   -0.1343   -6.4720 C.2     1  PRO11       0.2342
     19 C           0.7474   -2.0567   -5.1285 C.2     5  ASP55       0.2369
     20 CA          3.2324    1.6601   -4.7669 C.3     2  VAL22       0.1017
     21 CA         -0.7015   -2.5687   -4.9458 C.3     5  ASP55       0.1047
     22 CB          4.4925    1.8822   -3.9024 C.3     2  VAL22      -0.0197
     23 CA         -0.3153    2.9347   -4.1503 C.3     3  LEU33       0.0996
     24 C           1.9573    2.0071   -3.9765 C.2     2  VAL22       0.2342
     25 CB         -0.7826   -3.5091   -3.7546 C.3     5  ASP55       0.0138
     26 CA         -3.0962    0.4745   -5.1222 C.3     4  TRP44       0.1034
     27 CB         -0.6883    4.4229   -4.1475 C.3     3  LEU33      -0.0236
     28 CG          0.1954    5.3053   -3.2405 C.3     3  LEU33      -0.0446
     29 C          -2.4619   -0.8749   -5.5332 C.2     4  TRP44       0.2343
     30 CB         -4.4054    0.2613   -4.3436 C.3     4  TRP44       0.0013
     31 C          -1.2860    2.1622   -5.0573 C.2     3  LEU33       0.2340
     32 CG1         4.6036    3.3470   -3.4586 C.3     2  VAL22      -0.0605
     33 CG2         5.7641    1.4954   -4.6659 C.3     2  VAL22      -0.0605
     34 CG         -4.2406   -0.4201   -3.0157 C.ar    4  TRP44      -0.0201
     35 CG          0.0187   -4.7820   -3.9998 C.2     5  ASP55       0.0440
     36 CD1        -0.2262    6.7712   -3.3763 C.3     3  LEU33      -0.0626
     37 CD2         0.1302    4.8897   -1.7697 C.3     3  LEU33      -0.0626
     38 CD2        -4.3914   -1.8222   -2.7625 C.ar    4  TRP44       0.0029
     39 CD1        -3.9068    0.1705   -1.8107 C.ar    4  TRP44       0.0060
     40 CE2        -4.0897   -2.0394   -1.4189 C.ar    4  TRP44       0.0467
     41 CE3        -4.7250   -2.9330   -3.5647 C.ar    4  TRP44      -0.0523
     42 CZ2        -4.0898   -3.3134   -0.8389 C.ar    4  TRP44      -0.0378
     43 CZ3        -4.7337   -4.2131   -3.0004 C.ar    4  TRP44      -0.0611
     44 CH2        -4.4145   -4.3981   -1.6581 C.ar    4  TRP44      -0.0598
@<TRIPOS>BOND
     1     1    18    2
     2     2    19    2
     3     3    24    2
     4     4    29    2
     5     5    31    2
     6     6    35   ar
     7     7    35   ar
     8     8    14    1
     9     8    17    1
    10     8    19   am
    11     9    18   am
    12     9    20    1
    13    10    21    1
    14    10    29   am
    15    11    23    1
    16    11    24   am
    17    12    26    1
    18    12    31   am
    19    13    39   ar
    20    13    40   ar
    21    14    15    1
    22    14    18    1
    23    15    16    1
    24    16    17    1
    25    19    21    1
    26    20    22    1
    27    20    24    1
    28    21    25    1
    29    22    32    1
    30    22    33    1
    31    23    27    1
    32    23    31    1
    33    25    35    1
    34    26    29    1
    35    26    30    1
    36    27    28    1
    37    28    36    1
    38    28    37    1
    39    30    34    1
    40    34    38   ar
    41    34    39   ar
    42    38    40   ar
    43    38    41   ar
    44    40    42   ar
    45    41    43   ar
    46    42    44   ar
    47    43    44   ar
