@<TRIPOS>MOLECULE
BOSENTAN_50CONFORMERS.pdb
 39 42 0 0 0
SMALL
GASTEIGER

@<TRIPOS>ATOM
      1  S1        -1.4190    0.2230    2.8520 S.O2    1  LGD1        0.0943
      2  O2        -0.7060    1.3920    2.2280 O.2     1  LGD1       -0.1483
      3  O3        -2.6880    0.3490    3.5440 O.2     1  LGD1       -0.1483
      4  O4        -2.3390   -2.9990   -0.0380 O.3     1  LGD1       -0.4427
      5  O5        -0.5400   -3.7680   -2.1730 O.3     1  LGD1       -0.4552
      6  O6        -0.2480   -3.9010    1.6900 O.3     1  LGD1       -0.4684
      7  O7        -0.9770   -5.5460   -4.6440 O.3     1  LGD1       -0.2162
      8  N8        -1.8330   -0.6470    1.4700 N.pl3   1  LGD1       -0.0737
      9  N9         0.3690   -0.5030    0.3200 N.ar    1  LGD1       -0.2027
     10  N10        0.9730   -2.1100   -1.3520 N.ar    1  LGD1       -0.1866
     11  N11        3.6450   -1.2090   -1.0090 N.ar    1  LGD1       -0.2224
     12  N12        2.6370    0.9570   -0.4590 N.ar    1  LGD1       -0.2224
     13  C13        2.7890   -3.2790    5.6480 C.3     1  LGD1        0.0189
     14  C14        1.6950   -2.3670    5.0110 C.ar    1  LGD1       -0.0227
     15  C15        2.2300   -4.6290    6.0310 C.3     1  LGD1        0.0044
     16  C16        3.2460   -2.5860    6.9670 C.3     1  LGD1        0.0044
     17  C17        3.9410   -3.5060    4.7130 C.3     1  LGD1        0.0044
     18  C18        0.3830   -2.7640    4.7940 C.ar    1  LGD1       -0.0029
     19  C19        2.0450   -1.0650    4.5830 C.ar    1  LGD1       -0.0029
     20  C20       -0.1410   -0.6800    3.7350 C.ar    1  LGD1        0.1271
     21  C21       -0.4640   -1.9490    4.1280 C.ar    1  LGD1        0.0199
     22  C22        1.1720   -0.1950    3.9150 C.ar    1  LGD1        0.0199
     23  C23       -0.8100   -1.1450    0.5510 C.ar    1  LGD1        0.2125
     24  C24       -1.1600   -2.2660   -0.2830 C.ar    1  LGD1        0.2327
     25  C25       -0.2070   -2.7700   -1.2020 C.ar    1  LGD1        0.2651
     26  C26        1.1900   -1.0680   -0.5240 C.ar    1  LGD1        0.2028
     27  C27       -2.5450   -3.9200    1.0150 C.ar    1  LGD1        0.1793
     28  C28        2.6000   -0.3910   -0.6780 C.ar    1  LGD1        0.1990
     29  C29        0.4740   -4.3570   -2.9790 C.3     1  LGD1        0.2426
     30  C30       -1.5160   -4.3160    1.8920 C.ar    1  LGD1        0.1730
     31  C31       -3.8140   -4.4390    1.2170 C.ar    1  LGD1        0.0406
     32  C32       -1.7530   -5.2040    3.0060 C.ar    1  LGD1        0.0401
     33  C33        0.0000   -5.6910   -3.5430 C.3     1  LGD1        0.2292
     34  C34       -4.0330   -5.3300    2.2920 C.ar    1  LGD1        0.0033
     35  C35       -3.0290   -5.6640    3.1870 C.ar    1  LGD1        0.0033
     36  C36        4.8490   -0.5980   -1.0730 C.ar    1  LGD1        0.1023
     37  C37        3.8880    1.5070   -0.4120 C.ar    1  LGD1        0.1023
     38  C38        4.9670    0.7170   -0.6970 C.ar    1  LGD1        0.0414
     39  C39        0.4290   -4.9410    0.9480 C.3     1  LGD1        0.2526
@<TRIPOS>BOND
     1    33     7    1
     2    33    29    1
     3     5    29    1
     4     5    25    1
     5    10    25   ar
     6    10    26   ar
     7    36    11   ar
     8    36    38   ar
     9    11    28   ar
    10    25    24   ar
    11    38    37   ar
    12    34    31   ar
    13    34    35   ar
    14    28    26    1
    15    28    12   ar
    16    26     9   ar
    17    31    27   ar
    18    37    12   ar
    19    24     4    1
    20    24    23   ar
    21     4    27    1
    22    27    30   ar
    23    35    32   ar
    24    15    13    1
    25     9    23   ar
    26    23     8    1
    27    30    32   ar
    28    30     6    1
    29     6    39    1
    30     8     1    1
    31    18    14   ar
    32    18    21   ar
    33    13    14    1
    34    13    17    1
    35    13    16    1
    36    14    19   ar
    37    21    20   ar
    38    20     1    1
    39    20    22   ar
    40    19    22   ar
    41     1     2    2
    42     1     3    2
@<TRIPOS>MOLECULE
9910224
 30 33 0 0 0
SMALL
GASTEIGER

@<TRIPOS>ATOM
      1 S          -3.3295   -1.5965    2.5735 S.O2    1  LIG11       0.0756
      2 O          -4.7638   -1.7199    2.3914 O.2     1  LIG11      -0.1499
      3 O          -2.8267   -0.8426    3.7003 O.2     1  LIG11      -0.1499
      4 O          -4.1708    1.0209   -0.1998 O.3     1  LIG11      -0.4773
      5 O           2.6271    1.4911    4.6178 O.2     1  LIG11      -0.4229
      6 N          -2.6788   -0.8830    1.1945 N.pl3   1  LIG11      -0.1951
      7 N          -0.8791   -4.7633    3.1895 N.ar    1  LIG11      -0.2530
      8 N          -3.2135   -2.4816   -0.4286 N.ar    1  LIG11      -0.2325
      9 N          -4.8006   -0.5795   -1.8345 N.ar    1  LIG11      -0.2137
     10 N           3.1156    0.2393    6.4065 N.ar    1  LIG11      -0.1076
     11 N           3.8038    1.4306    6.5195 N.ar    1  LIG11      -0.1156
     12 C          -2.6216   -3.2152    2.6086 C.ar    1  LIG11       0.1344
     13 C          -1.3463   -3.4803    3.1021 C.ar    1  LIG11       0.0975
     14 C          -0.3720   -2.5021    3.6161 C.ar    1  LIG11       0.0023
     15 C          -3.4344   -4.2921    2.2187 C.ar    1  LIG11      -0.0315
     16 C           0.1577   -1.4712    2.8269 C.ar    1  LIG11      -0.0518
     17 C           0.0995   -2.6200    4.9352 C.ar    1  LIG11      -0.0518
     18 C          -3.3481   -1.2071   -0.0135 C.ar    1  LIG11       0.2006
     19 C           1.5049   -0.6516    4.6887 C.ar    1  LIG11       0.0385
     20 C           1.0684   -0.5466    3.3606 C.ar    1  LIG11      -0.0488
     21 C           1.0253   -1.7138    5.4628 C.ar    1  LIG11      -0.0488
     22 C          -2.9545   -5.5924    2.3039 C.ar    1  LIG11      -0.0417
     23 C          -1.6782   -5.7762    2.7914 C.ar    1  LIG11       0.0284
     24 C          -4.1278   -0.2683   -0.7004 C.ar    1  LIG11       0.2574
     25 C           2.4338    0.3026    5.2785 C.ar    1  LIG11       0.2480
     26 C          -4.6829   -1.8655   -2.2505 C.ar    1  LIG11       0.0602
     27 C          -3.8973   -2.7867   -1.5583 C.ar    1  LIG11       0.0510
     28 C          -5.4197   -2.2725   -3.4884 C.3     1  LIG11      -0.0208
     29 C          -5.0088    1.8828   -0.9644 C.3     1  LIG11       0.0805
     30 C           3.4818    2.1331    5.4604 C.ar    1  LIG11       0.2047
@<TRIPOS>BOND
     1     1     2    2
     2     1     3    2
     3     1     6    1
     4     1    12    1
     5     4    24    1
     6     4    29    1
     7     5    25   ar
     8     5    30   ar
     9     6    18    1
    10     7    13   ar
    11     7    23   ar
    12     8    18   ar
    13     8    27   ar
    14     9    24   ar
    15     9    26   ar
    16    10    11   ar
    17    10    25   ar
    18    11    30   ar
    19    12    13   ar
    20    12    15   ar
    21    13    14    1
    22    14    16   ar
    23    14    17   ar
    24    15    22   ar
    25    16    20   ar
    26    17    21   ar
    27    18    24   ar
    28    19    20   ar
    29    19    21   ar
    30    19    25    1
    31    22    23   ar
    32    26    27   ar
    33    26    28    1
