@<TRIPOS>MOLECULE
BOSENTAN_50CONFORMERS.pdb
 39 42 0 0 0
SMALL
GASTEIGER

@<TRIPOS>ATOM
      1  S1        -1.8260    0.8680    2.1150 S.O2    1  LGD1        0.0943
      2  O2        -3.2310    1.0510    2.6420 O.2     1  LGD1       -0.1483
      3  O3        -0.7360    0.8420    3.1650 O.2     1  LGD1       -0.1483
      4  O4        -2.4030   -2.7480   -0.1730 O.3     1  LGD1       -0.4427
      5  O5        -0.5250   -3.7950   -2.0950 O.3     1  LGD1       -0.4552
      6  O6        -2.8550   -0.2480   -1.8440 O.3     1  LGD1       -0.4684
      7  O7        -1.9730   -4.8030   -4.4000 O.3     1  LGD1       -0.2162
      8  N8        -1.8030   -0.6630    1.3420 N.pl3   1  LGD1       -0.0737
      9  N9         0.3910   -0.5170    0.4490 N.ar    1  LGD1       -0.2027
     10  N10        0.9160   -2.0940   -1.3960 N.ar    1  LGD1       -0.1866
     11  N11        2.6710    0.8150   -0.9050 N.ar    1  LGD1       -0.2224
     12  N12        3.5280   -1.4300   -0.5030 N.ar    1  LGD1       -0.2224
     13  C13       -0.5230    4.4800   -2.6490 C.3     1  LGD1        0.0189
     14  C14       -0.8270    3.6580   -1.3880 C.ar    1  LGD1       -0.0227
     15  C15       -1.6210    5.5800   -2.8100 C.3     1  LGD1        0.0044
     16  C16       -0.4680    3.6970   -4.0130 C.3     1  LGD1        0.0044
     17  C17        0.8300    5.1600   -2.6730 C.3     1  LGD1        0.0044
     18  C18        0.1540    3.3630   -0.3720 C.ar    1  LGD1       -0.0029
     19  C19       -2.1270    3.0610   -1.2730 C.ar    1  LGD1       -0.0029
     20  C20       -1.4510    1.9720    0.8310 C.ar    1  LGD1        0.1271
     21  C21       -0.1290    2.4730    0.7040 C.ar    1  LGD1        0.0199
     22  C22       -2.4280    2.2780   -0.1370 C.ar    1  LGD1        0.0199
     23  C23       -0.8140   -1.1840    0.5480 C.ar    1  LGD1        0.2125
     24  C24       -1.1190   -2.2490   -0.2350 C.ar    1  LGD1        0.2327
     25  C25       -0.2610   -2.7270   -1.2750 C.ar    1  LGD1        0.2651
     26  C26        1.1980   -1.0480   -0.5300 C.ar    1  LGD1        0.2028
     27  C27       -3.3080   -2.6450   -1.2120 C.ar    1  LGD1        0.1793
     28  C28        2.5710   -0.4720   -0.5450 C.ar    1  LGD1        0.1990
     29  C29       -0.0310   -3.6890   -3.4570 C.3     1  LGD1        0.2426
     30  C30       -3.5470   -1.4580   -2.0260 C.ar    1  LGD1        0.1730
     31  C31       -4.0820   -3.7780   -1.4710 C.ar    1  LGD1        0.0406
     32  C32       -4.5460   -1.5120   -2.9680 C.ar    1  LGD1        0.0401
     33  C33       -0.5230   -4.8470   -4.3420 C.3     1  LGD1        0.2292
     34  C34       -5.0600   -3.7560   -2.4690 C.ar    1  LGD1        0.0033
     35  C35       -5.2410   -2.6820   -3.2890 C.ar    1  LGD1        0.0033
     36  C36        3.9260    1.3540   -0.9780 C.ar    1  LGD1        0.1023
     37  C37        4.8260   -0.9910   -0.5450 C.ar    1  LGD1        0.1023
     38  C38        4.9700    0.4280   -0.7720 C.ar    1  LGD1        0.0414
     39  C39       -1.9900   -0.1040   -3.0090 C.3     1  LGD1        0.2526
@<TRIPOS>BOND
     1    33     7    1
     2    33    29    1
     3     5    29    1
     4     5    25    1
     5    10    25   ar
     6    10    26   ar
     7    36    11   ar
     8    36    38   ar
     9    11    28   ar
    10    25    24   ar
    11    38    37   ar
    12    34    31   ar
    13    34    35   ar
    14    28    26    1
    15    28    12   ar
    16    26     9   ar
    17    31    27   ar
    18    37    12   ar
    19    24     4    1
    20    24    23   ar
    21     4    27    1
    22    27    30   ar
    23    35    32   ar
    24    15    13    1
    25     9    23   ar
    26    23     8    1
    27    30    32   ar
    28    30     6    1
    29     6    39    1
    30     8     1    1
    31    18    14   ar
    32    18    21   ar
    33    13    14    1
    34    13    17    1
    35    13    16    1
    36    14    19   ar
    37    21    20   ar
    38    20     1    1
    39    20    22   ar
    40    19    22   ar
    41     1     2    2
    42     1     3    2
@<TRIPOS>MOLECULE
23693553
 46 48 0 0 0
SMALL
GASTEIGER

@<TRIPOS>ATOM
      1 O           3.2761    2.2348   -3.6407 O.2     1  LIG11      -0.2526
      2 O           1.1511    2.6514   -6.6523 O.2     1  LIG11      -0.2731
      3 O          -1.4183    2.2052   -3.7042 O.2     1  LIG11      -0.2689
      4 O           0.3613   -0.9942   -3.8187 O.co2   1  LIG11      -0.5479
      5 OXT         1.0250   -2.2960   -5.5711 O.co2   1  LIG11      -0.5479
      6 O          -6.5212   -4.1227   -5.1283 O.3     1  LIG11      -0.4515
      7 O          -6.5512   -1.9992   -6.0527 O.2     1  LIG11      -0.2227
      8 N           4.6421    3.9822   -4.3147 N.am    1  LIG11      -0.2801
      9 N           2.2983    4.0447   -4.5693 N.am    1  LIG11      -0.2879
     10 N          -0.0079    1.2381   -5.2545 N.am    1  LIG11      -0.2273
     11 N          -3.0983    0.4651   -5.4643 N.3     1  LIG11       0.2276
     12 N          -5.6091   -2.3553   -4.0074 N.ar    1  LIG11      -0.2526
     13 C           5.8274    3.1647   -3.9525 C.3     1  LIG11       0.0249
     14 C           4.8038    5.3378   -4.8987 C.3     1  LIG11       0.0249
     15 C           7.1919    3.6935   -4.4237 C.3     1  LIG11      -0.0344
     16 C           6.2325    5.7448   -5.2904 C.3     1  LIG11      -0.0344
     17 C           7.0872    4.5553   -5.6620 C.3     1  LIG11      -0.0497
     18 CA          0.9523    3.4608   -4.3710 C.3     1  LIG11       0.1019
     19 C          -0.4227    5.3911   -3.1414 C.3     1  LIG11      -0.0356
     20 C          -0.1090    4.5871   -4.4479 C.3     1  LIG11      -0.0210
     21 C           3.4022    3.3479   -4.1444 C.2     1  LIG11       0.3033
     22 C           5.9161    2.8983   -2.4408 C.3     1  LIG11      -0.0464
     23 C           4.2477    6.4295   -3.9814 C.3     1  LIG11      -0.0464
     24 C           0.7376    2.4055   -5.5077 C.2     1  LIG11       0.2429
     25 C          -0.8051    4.5089   -1.9405 C.3     1  LIG11      -0.0600
     26 C           0.7650    6.2646   -2.7211 C.3     1  LIG11      -0.0600
     27 C          -1.6170    6.3230   -3.4389 C.3     1  LIG11      -0.0600
     28 CA          0.4884    0.0144   -5.9780 C.3     1  LIG11       0.0730
     29 C          -0.3863   -0.4997   -7.1497 C.3     1  LIG11      -0.0286
     30 C          -1.0663    1.2079   -4.3427 C.2     1  LIG11       0.2708
     31 CA         -2.0956    0.0572   -4.3856 C.3     1  LIG11       0.0579
     32 C          -0.8159    0.5228   -8.2031 C.3     1  LIG11      -0.0513
     33 C          -2.8668   -0.0871   -3.0449 C.3     1  LIG11       0.0261
     34 C           0.7176   -1.2097   -5.0175 C.2     1  LIG11       0.0626
     35 C          -3.9621   -1.1219   -3.1198 C.ar    1  LIG11      -0.0158
     36 C          -1.7154   -0.1009   -9.2862 C.3     1  LIG11      -0.0558
     37 C          -4.0725   -2.3373   -2.3763 C.ar    1  LIG11       0.0038
     38 C          -5.1030   -1.0659   -3.8957 C.ar    1  LIG11       0.0202
     39 C          -5.1533   -3.0637   -2.9014 C.ar    1  LIG11       0.0598
     40 C          -3.0629   -0.6085   -8.7838 C.3     1  LIG11      -0.0653
     41 C          -3.3417   -2.8912   -1.3052 C.ar    1  LIG11      -0.0523
     42 C          -5.5504   -4.2960   -2.3535 C.ar    1  LIG11      -0.0371
     43 C          -3.7428   -4.1098   -0.7491 C.ar    1  LIG11      -0.0611
     44 C          -6.3303   -2.7833   -5.1413 C.2     1  LIG11       0.4196
     45 C          -4.8378   -4.7957   -1.2614 C.ar    1  LIG11      -0.0598
     46 C          -6.9032   -4.6539   -6.3972 C.3     1  LIG11       0.0835
@<TRIPOS>BOND
     1     1    21    2
     2     2    24    2
     3     3    30    2
     4     4    34   ar
     5     5    34   ar
     6     6    44    1
     7     6    46    1
     8     7    44    2
     9     8    13    1
    10     8    14    1
    11     9    21   am
    12    10    24   am
    13    10    30   am
    14    12    39   ar
    15    12    38   ar
    16    12    44   am
    17    13    15    1
    18    13    22    1
    19    14    16    1
    20    14    23    1
    21    15    17    1
    22    16    17    1
    23    18     9    1
    24    18    24    1
    25    18    20    1
    26    19    20    1
    27    19    27    1
    28    19    26    1
    29    19    25    1
    30    21     8   am
    31    28    34    1
    32    28    29    1
    33    28    10    1
    34    29    32    1
    35    31    33    1
    36    31    11    1
    37    31    30    1
    38    32    36    1
    39    33    35    1
    40    35    38   ar
    41    35    37   ar
    42    36    40    1
    43    37    39   ar
    44    37    41   ar
    45    39    42   ar
    46    41    43   ar
    47    42    45   ar
    48    43    45   ar
