@<TRIPOS>MOLECULE
BOSENTAN_50CONFORMERS.pdb
 39 42 0 0 0
SMALL
GASTEIGER

@<TRIPOS>ATOM
      1  S1        -2.2130   -0.9610    2.7860 S.O2    1  LGD1        0.0943
      2  O2        -1.2310   -1.8870    3.3660 O.2     1  LGD1       -0.1483
      3  O3        -2.3150    0.3660    3.4370 O.2     1  LGD1       -0.1483
      4  O4        -2.4510   -2.9280   -0.0960 O.3     1  LGD1       -0.4427
      5  O5        -0.5660   -3.7200   -2.0470 O.3     1  LGD1       -0.4552
      6  O6        -0.6560   -4.8360    1.1410 O.3     1  LGD1       -0.4684
      7  O7        -1.0530   -6.3730   -2.7650 O.3     1  LGD1       -0.2162
      8  N8        -1.7870   -0.6080    1.2480 N.pl3   1  LGD1       -0.0737
      9  N9         0.3610   -0.5810    0.4590 N.ar    1  LGD1       -0.2027
     10  N10        0.9730   -2.0690   -1.4600 N.ar    1  LGD1       -0.1866
     11  N11        3.5900   -1.1320   -1.2680 N.ar    1  LGD1       -0.2224
     12  N12        2.5820    0.8690   -0.0850 N.ar    1  LGD1       -0.2224
     13  C13       -7.3260   -3.9710    1.5890 C.3     1  LGD1        0.0189
     14  C14       -6.0780   -3.1800    1.8900 C.ar    1  LGD1       -0.0227
     15  C15       -7.6350   -3.9770    0.1120 C.3     1  LGD1        0.0044
     16  C16       -8.5540   -3.4160    2.3330 C.3     1  LGD1        0.0044
     17  C17       -7.2090   -5.4830    1.9100 C.3     1  LGD1        0.0044
     18  C18       -5.9650   -1.8470    1.5700 C.ar    1  LGD1       -0.0029
     19  C19       -5.0280   -3.7830    2.6350 C.ar    1  LGD1       -0.0029
     20  C20       -3.7990   -1.7080    2.5850 C.ar    1  LGD1        0.1271
     21  C21       -4.8750   -1.0430    2.0160 C.ar    1  LGD1        0.0199
     22  C22       -3.9180   -3.0410    3.0260 C.ar    1  LGD1        0.0199
     23  C23       -0.8110   -1.2550    0.5910 C.ar    1  LGD1        0.2125
     24  C24       -1.1400   -2.3210   -0.2160 C.ar    1  LGD1        0.2327
     25  C25       -0.2180   -2.6770   -1.2160 C.ar    1  LGD1        0.2651
     26  C26        1.1700   -1.0450   -0.5500 C.ar    1  LGD1        0.2028
     27  C27       -2.7100   -4.3130   -0.0590 C.ar    1  LGD1        0.1793
     28  C28        2.6010   -0.3900   -0.5990 C.ar    1  LGD1        0.1990
     29  C29        0.4460   -4.8130   -1.9160 C.3     1  LGD1        0.2426
     30  C30       -1.9410   -5.1940    0.6780 C.ar    1  LGD1        0.1730
     31  C31       -3.9190   -4.7220   -0.5350 C.ar    1  LGD1        0.0406
     32  C32       -2.2500   -6.5580    0.7410 C.ar    1  LGD1        0.0401
     33  C33        0.2050   -5.7470   -3.0780 C.3     1  LGD1        0.2292
     34  C34       -4.1890   -6.1270   -0.6620 C.ar    1  LGD1        0.0033
     35  C35       -3.3490   -6.9720    0.0120 C.ar    1  LGD1        0.0033
     36  C36        4.8260   -0.5880   -1.3240 C.ar    1  LGD1        0.1023
     37  C37        3.8140    1.4510   -0.2760 C.ar    1  LGD1        0.1023
     38  C38        4.8740    0.7260   -0.7820 C.ar    1  LGD1        0.0414
     39  C39       -0.1790   -5.1290    2.4860 C.3     1  LGD1        0.2526
@<TRIPOS>BOND
     1    33     7    1
     2    33    29    1
     3     5    29    1
     4     5    25    1
     5    10    25   ar
     6    10    26   ar
     7    36    11   ar
     8    36    38   ar
     9    11    28   ar
    10    25    24   ar
    11    38    37   ar
    12    34    31   ar
    13    34    35   ar
    14    28    26    1
    15    28    12   ar
    16    26     9   ar
    17    31    27   ar
    18    37    12   ar
    19    24     4    1
    20    24    23   ar
    21     4    27    1
    22    27    30   ar
    23    35    32   ar
    24    15    13    1
    25     9    23   ar
    26    23     8    1
    27    30    32   ar
    28    30     6    1
    29     6    39    1
    30     8     1    1
    31    18    14   ar
    32    18    21   ar
    33    13    14    1
    34    13    17    1
    35    13    16    1
    36    14    19   ar
    37    21    20   ar
    38    20     1    1
    39    20    22   ar
    40    19    22   ar
    41     1     2    2
    42     1     3    2
@<TRIPOS>MOLECULE
HTS1204-03362316-01
 44 47 0 0 0
SMALL
USER_CHARGES

@<TRIPOS>ATOM
      1 C1         -4.6671   -4.3230    4.0528 C.ar    1  UNK11      -0.0199
      2 N1         -6.2969   -4.2804    2.5248 N.ar    1  UNK11      -0.3494
      3 C2          2.5601   -4.1637    2.9625 C.2     1  UNK11       0.3028
      4 C3         -5.7886   -4.9783    3.5819 C.ar    1  UNK11       0.0086
      5 C4         -2.7558   -6.8222    4.0360 C.2     1  UNK11       0.2342
      6 C5         -4.5153   -3.1487    3.2436 C.ar    1  UNK11       0.0031
      7 C6         -0.2970   -4.3915    4.5544 C.2     1  UNK11       0.2340
      8 C7         -5.5250   -3.1676    2.2738 C.ar    1  UNK11       0.0491
      9 N2          1.2728   -3.7328    2.7504 N.am    1  UNK11      -0.2879
     10 N3          3.1741   -4.6712    1.8224 N.am    1  UNK11      -0.2856
     11 N4         -1.5911   -4.6111    4.1301 N.am    1  UNK11      -0.3022
     12 N5         -1.6472   -7.2662    3.3484 N.am    1  UNK11      -0.3054
     13 C8         -2.5114   -5.5198    4.8262 C.3     1  UNK11       0.1034
     14 C9          0.3983   -3.2311    3.8155 C.3     1  UNK11       0.1011
     15 C10        -1.6301   -8.5143    2.5525 C.3     1  UNK11       0.0680
     16 C11        -3.8171   -4.7917    5.2061 C.3     1  UNK11       0.0013
     17 C12        -0.4098   -9.4140    2.9031 C.2     1  UNK11       0.0623
     18 C13        -1.3742   -8.2345    1.0632 C.3     1  UNK11       0.0133
     19 O1          3.1381   -4.0824    4.0415 O.2     1  UNK11      -0.2526
     20 O2          0.2232   -5.0393    5.4545 O.2     1  UNK11      -0.2738
     21 O3         -3.8086   -7.4523    4.1107 O.2     1  UNK11      -0.2738
     22 N6         -3.4372   -7.8122   -0.2054 N.ar    1  UNK11      -0.2598
     23 O4          0.5865   -8.7719    3.3605 O.co2   1  UNK11      -0.5479
     24 C14         1.0540   -2.2361    4.7939 C.3     1  UNK11      -0.0236
     25 C15        -2.3714   -7.2822    0.4441 C.ar    1  UNK11       0.0434
     26 O5         -0.5371  -10.6479    2.6727 O.co2   1  UNK11      -0.5479
     27 C16        -7.4782   -4.6641    1.7868 C.3     1  UNK11       0.0119
     28 C17         2.7387   -4.3590    0.4573 C.3     1  UNK11       0.0161
     29 C18         4.4050   -5.4335    1.9988 C.3     1  UNK11       0.0161
     30 C19        -5.6304   -2.1804    1.2798 C.ar    1  UNK11      -0.0376
     31 C20        -3.6021   -2.0728    3.2339 C.ar    1  UNK11      -0.0523
     32 C21         0.0524   -1.4200    5.6494 C.3     1  UNK11      -0.0446
     33 C22        -4.3408   -6.9487   -0.7152 C.ar    1  UNK11       0.0279
     34 C23        -2.1779   -5.9029    0.5536 C.ar    1  UNK11      -0.0403
     35 C24        -0.5225   -2.2137    6.8275 C.3     1  UNK11      -0.0626
     36 C25         0.7456   -0.1690    6.1984 C.3     1  UNK11      -0.0626
     37 C26         3.8097   -4.4990   -0.6294 C.3     1  UNK11      -0.0371
     38 C27         5.6689   -4.5863    1.8378 C.3     1  UNK11      -0.0371
     39 C28        -3.6908   -1.0891    2.2428 C.ar    1  UNK11      -0.0611
     40 C29        -4.6888   -1.1486    1.2753 C.ar    1  UNK11      -0.0598
     41 C30        -4.2293   -5.5711   -0.6336 C.ar    1  UNK11      -0.0436
     42 C31        -3.1222   -5.0404    0.0121 C.ar    1  UNK11      -0.0586
     43 C32         5.0337   -3.5937   -0.4682 C.3     1  UNK11      -0.0516
     44 C33         5.5290   -3.3463    0.9552 C.3     1  UNK11      -0.0516
@<TRIPOS>BOND
     1     2     4   ar
     2     3     9   am
     3     1     4   ar
     4     5    13    1
     5     1     6   ar
     6     7    11   am
     7     6     8   ar
     8     9    14    1
     9     3    10   am
    10    11    13    1
    11     5    12   am
    12    13    16    1
    13     7    14    1
    14    12    15    1
    15     1    16    1
    16    15    17    1
    17    15    18    1
    18     3    19    2
    19     7    20    2
    20     5    21    2
    21    22    25   ar
    22    17    23   ar
    23    14    24    1
    24    18    25    1
    25    17    26   ar
    26     2    27    1
    27    10    28    1
    28    10    29    1
    29     8    30   ar
    30     6    31   ar
    31    24    32    1
    32    22    33   ar
    33    25    34   ar
    34    32    35    1
    35    32    36    1
    36    28    37    1
    37    29    38    1
    38    31    39   ar
    39    39    40   ar
    40    41    42   ar
    41    34    42   ar
    42    37    43    1
    43    38    44    1
    44     2     8   ar
    45    30    40   ar
    46    33    41   ar
    47    43    44    1
