@<TRIPOS>MOLECULE
BOSENTAN_50CONFORMERS.pdb
 39 42 0 0 0
SMALL
GASTEIGER

@<TRIPOS>ATOM
      1  S1        -2.5440    0.8820    1.3810 S.O2    1  LGD1        0.0943
      2  O2        -3.0580    1.0090   -0.0300 O.2     1  LGD1       -0.1483
      3  O3        -3.4510    1.0070    2.5580 O.2     1  LGD1       -0.1483
      4  O4        -2.5030   -2.6290   -0.5280 O.3     1  LGD1       -0.4427
      5  O5        -0.4920   -3.8130   -2.0760 O.3     1  LGD1       -0.4552
      6  O6        -2.0670   -1.1970   -2.9360 O.3     1  LGD1       -0.4684
      7  O7         0.0690   -6.9230   -2.9370 O.3     1  LGD1       -0.2162
      8  N8        -1.8600   -0.6450    1.4930 N.pl3   1  LGD1       -0.0737
      9  N9         0.4100   -0.5870    0.4360 N.ar    1  LGD1       -0.2027
     10  N10        0.9660   -2.0980   -1.4610 N.ar    1  LGD1       -0.1866
     11  N11        2.6500    0.7480   -1.3020 N.ar    1  LGD1       -0.2224
     12  N12        3.5170   -0.9850    0.1730 N.ar    1  LGD1       -0.2224
     13  C13        2.2420    4.4520    2.1170 C.3     1  LGD1        0.0189
     14  C14        1.0250    3.4900    1.9820 C.ar    1  LGD1       -0.0227
     15  C15        2.0010    5.4460    3.2800 C.3     1  LGD1        0.0044
     16  C16        2.6730    5.2910    0.8990 C.3     1  LGD1        0.0044
     17  C17        3.5210    3.6960    2.5530 C.3     1  LGD1        0.0044
     18  C18        0.6010    2.6040    3.0120 C.ar    1  LGD1       -0.0029
     19  C19        0.3390    3.5290    0.7610 C.ar    1  LGD1       -0.0029
     20  C20       -1.2400    1.9560    1.6370 C.ar    1  LGD1        0.1271
     21  C21       -0.4570    1.7090    2.7450 C.ar    1  LGD1        0.0199
     22  C22       -0.8450    2.7820    0.5840 C.ar    1  LGD1        0.0199
     23  C23       -0.8540   -1.1040    0.5510 C.ar    1  LGD1        0.2125
     24  C24       -1.1750   -2.2000   -0.3310 C.ar    1  LGD1        0.2327
     25  C25       -0.1850   -2.7510   -1.2360 C.ar    1  LGD1        0.2651
     26  C26        1.1720   -1.0790   -0.5680 C.ar    1  LGD1        0.2028
     27  C27       -3.4940   -1.9040   -1.1530 C.ar    1  LGD1        0.1793
     28  C28        2.5770   -0.4000   -0.6350 C.ar    1  LGD1        0.1990
     29  C29       -0.5060   -5.0230   -1.3510 C.3     1  LGD1        0.2426
     30  C30       -3.3220   -1.2950   -2.4140 C.ar    1  LGD1        0.1730
     31  C31       -4.8550   -2.2290   -0.7620 C.ar    1  LGD1        0.0406
     32  C32       -4.4180   -1.0620   -3.2580 C.ar    1  LGD1        0.0401
     33  C33       -0.9950   -6.1940   -2.2700 C.3     1  LGD1        0.2292
     34  C34       -5.9160   -1.6500   -1.4840 C.ar    1  LGD1        0.0033
     35  C35       -5.6950   -1.1630   -2.7440 C.ar    1  LGD1        0.0033
     36  C36        3.8630    1.3500   -1.3730 C.ar    1  LGD1        0.1023
     37  C37        4.7310   -0.3060    0.2120 C.ar    1  LGD1        0.1023
     38  C38        4.8960    0.8630   -0.5380 C.ar    1  LGD1        0.0414
     39  C39       -1.5870    0.1640   -3.1710 C.3     1  LGD1        0.2526
@<TRIPOS>BOND
     1    33     7    1
     2    33    29    1
     3     5    29    1
     4     5    25    1
     5    10    25   ar
     6    10    26   ar
     7    36    11   ar
     8    36    38   ar
     9    11    28   ar
    10    25    24   ar
    11    38    37   ar
    12    34    31   ar
    13    34    35   ar
    14    28    26    1
    15    28    12   ar
    16    26     9   ar
    17    31    27   ar
    18    37    12   ar
    19    24     4    1
    20    24    23   ar
    21     4    27    1
    22    27    30   ar
    23    35    32   ar
    24    15    13    1
    25     9    23   ar
    26    23     8    1
    27    30    32   ar
    28    30     6    1
    29     6    39    1
    30     8     1    1
    31    18    14   ar
    32    18    21   ar
    33    13    14    1
    34    13    17    1
    35    13    16    1
    36    14    19   ar
    37    21    20   ar
    38    20     1    1
    39    20    22   ar
    40    19    22   ar
    41     1     2    2
    42     1     3    2
@<TRIPOS>MOLECULE
16004692
 32 34 0 0 0
SMALL
GASTEIGER

@<TRIPOS>ATOM
      1 BR         -0.4356    0.4733    4.4746 Br      1  LIG11      -0.0503
      2 BR         -7.0189   -2.6566   -2.3447 Br      1  LIG11      -0.0472
      3 S           0.1805    7.3624    1.2968 S.O2    1  LIG11       0.1104
      4 O           0.6370    2.3715   -2.2998 O.3     1  LIG11      -0.4724
      5 O          -0.0824    7.4906    2.7081 O.2     1  LIG11      -0.1381
      6 O          -0.1857    8.4314    0.3998 O.2     1  LIG11      -0.1381
      7 O          -1.8696    0.0009   -1.0917 O.3     1  LIG11      -0.4590
      8 N           1.7987    7.0824    1.0595 N.3     1  LIG11      -0.1771
      9 N          -0.5757    5.9552    0.8012 N.pl3   1  LIG11      -0.1889
     10 N          -0.3144    6.2493   -1.4873 N.ar    1  LIG11      -0.2186
     11 N           0.2646    4.4616   -2.9217 N.ar    1  LIG11      -0.2008
     12 N          -3.3394   -0.8063   -2.7098 N.ar    1  LIG11      -0.2022
     13 N          -3.9044   -0.7690   -0.3878 N.ar    1  LIG11      -0.2022
     14 C           2.4988    5.8789    1.5113 C.3     1  LIG11       0.0185
     15 C          -0.0521    4.0057   -0.5808 C.ar    1  LIG11       0.0848
     16 C          -0.2548    5.3909   -0.4669 C.ar    1  LIG11       0.1532
     17 C           2.7308    5.7592    3.0091 C.3     1  LIG11      -0.0416
     18 C          -0.1330    3.1308    0.6036 C.ar    1  LIG11      -0.0094
     19 C           0.2478    3.6056   -1.8782 C.ar    1  LIG11       0.2276
     20 C           1.5502    5.2213    3.8056 C.3     1  LIG11      -0.0641
     21 C          -1.3650    2.9360    1.2587 C.ar    1  LIG11      -0.0527
     22 C           1.0033    2.4977    1.1376 C.ar    1  LIG11      -0.0527
     23 C           0.0539    1.1879   -1.7778 C.3     1  LIG11       0.1252
     24 C          -1.4570    2.1460    2.4076 C.ar    1  LIG11      -0.0472
     25 C           0.9125    1.7000    2.2831 C.ar    1  LIG11      -0.0472
     26 C          -0.0395    5.7382   -2.6826 C.ar    1  LIG11       0.1219
     27 C          -1.4561    1.0649   -1.9478 C.3     1  LIG11       0.1267
     28 C          -0.3165    1.5327    2.9148 C.ar    1  LIG11       0.0179
     29 C          -3.1009   -0.4948   -1.4254 C.ar    1  LIG11       0.3180
     30 C          -4.5063   -1.4391   -2.9515 C.ar    1  LIG11       0.0483
     31 C          -5.0590   -1.3986   -0.6891 C.ar    1  LIG11       0.0483
     32 C          -5.4122   -1.7638   -1.9677 C.ar    1  LIG11       0.0543
@<TRIPOS>BOND
     1     1    28    1
     2     2    32    1
     3     3     5    2
     4     3     6    2
     5     3     8    1
     6     3     9    1
     7     4    19    1
     8     4    23    1
     9     7    27    1
    10     7    29    1
    11     8    14    1
    12     9    16    1
    13    10    16   ar
    14    10    26   ar
    15    11    19   ar
    16    11    26   ar
    17    12    29   ar
    18    12    30   ar
    19    13    29   ar
    20    13    31   ar
    21    14    17    1
    22    15    16   ar
    23    15    18    1
    24    15    19   ar
    25    17    20    1
    26    18    21   ar
    27    18    22   ar
    28    21    24   ar
    29    22    25   ar
    30    23    27    1
    31    24    28   ar
    32    25    28   ar
    33    30    32   ar
    34    31    32   ar
