@<TRIPOS>MOLECULE
BOSENTAN_50CONFORMERS.pdb
 39 42 0 0 0
SMALL
GASTEIGER

@<TRIPOS>ATOM
      1  S1        -1.4390   -0.2770    2.9850 S.O2    1  LGD1        0.0943
      2  O2        -0.6700   -1.4790    3.3950 O.2     1  LGD1       -0.1483
      3  O3        -0.7820    1.0800    2.9240 O.2     1  LGD1       -0.1483
      4  O4        -2.3410   -2.9570   -0.1060 O.3     1  LGD1       -0.4427
      5  O5        -0.5880   -3.7510   -2.0700 O.3     1  LGD1       -0.4552
      6  O6        -0.6390   -4.6760    1.2730 O.3     1  LGD1       -0.4684
      7  O7         0.2720   -6.7200   -2.4470 O.3     1  LGD1       -0.2162
      8  N8        -1.8070   -0.6970    1.4040 N.pl3   1  LGD1       -0.0737
      9  N9         0.3430   -0.4940    0.3660 N.ar    1  LGD1       -0.2027
     10  N10        0.9830   -2.1230   -1.3670 N.ar    1  LGD1       -0.1866
     11  N11        2.5130    1.1060   -0.5040 N.ar    1  LGD1       -0.2224
     12  N12        3.6290   -1.0050   -1.1160 N.ar    1  LGD1       -0.2224
     13  C13       -6.5950    0.1700    6.2170 C.3     1  LGD1        0.0189
     14  C14       -5.3280   -0.0220    5.3910 C.ar    1  LGD1       -0.0227
     15  C15       -6.5870    1.3970    7.0820 C.3     1  LGD1        0.0044
     16  C16       -7.0120   -0.9870    7.1630 C.3     1  LGD1        0.0044
     17  C17       -7.7730    0.2730    5.3230 C.3     1  LGD1        0.0044
     18  C18       -4.6910   -1.2290    5.3750 C.ar    1  LGD1       -0.0029
     19  C19       -4.8140    1.0550    4.6240 C.ar    1  LGD1       -0.0029
     20  C20       -2.9390   -0.2310    3.9090 C.ar    1  LGD1        0.1271
     21  C21       -3.4680   -1.3120    4.6530 C.ar    1  LGD1        0.0199
     22  C22       -3.6280    0.9530    3.8950 C.ar    1  LGD1        0.0199
     23  C23       -0.8340   -1.1740    0.5510 C.ar    1  LGD1        0.2125
     24  C24       -1.1200   -2.2620   -0.3010 C.ar    1  LGD1        0.2327
     25  C25       -0.2210   -2.7180   -1.2450 C.ar    1  LGD1        0.2651
     26  C26        1.2260   -1.0560   -0.5310 C.ar    1  LGD1        0.2028
     27  C27       -2.7610   -3.5750    1.0700 C.ar    1  LGD1        0.1793
     28  C28        2.5840   -0.2650   -0.6670 C.ar    1  LGD1        0.1990
     29  C29        0.4340   -4.2220   -2.9040 C.3     1  LGD1        0.2426
     30  C30       -1.9740   -4.5840    1.6410 C.ar    1  LGD1        0.1730
     31  C31       -3.9860   -3.2280    1.6160 C.ar    1  LGD1        0.0406
     32  C32       -2.5570   -5.3210    2.7090 C.ar    1  LGD1        0.0401
     33  C33        0.0290   -5.6430   -3.4140 C.3     1  LGD1        0.2292
     34  C34       -4.5440   -3.9250    2.6490 C.ar    1  LGD1        0.0033
     35  C35       -3.8470   -5.0250    3.1700 C.ar    1  LGD1        0.0033
     36  C36        3.6780    1.8040   -0.6970 C.ar    1  LGD1        0.1023
     37  C37        4.7690   -0.3520   -1.2920 C.ar    1  LGD1        0.1023
     38  C38        4.7980    1.0310   -1.0460 C.ar    1  LGD1        0.0414
     39  C39       -0.1810   -5.9900    0.9310 C.3     1  LGD1        0.2526
@<TRIPOS>BOND
     1    33     7    1
     2    33    29    1
     3     5    29    1
     4     5    25    1
     5    10    25   ar
     6    10    26   ar
     7    36    11   ar
     8    36    38   ar
     9    11    28   ar
    10    25    24   ar
    11    38    37   ar
    12    34    31   ar
    13    34    35   ar
    14    28    26    1
    15    28    12   ar
    16    26     9   ar
    17    31    27   ar
    18    37    12   ar
    19    24     4    1
    20    24    23   ar
    21     4    27    1
    22    27    30   ar
    23    35    32   ar
    24    15    13    1
    25     9    23   ar
    26    23     8    1
    27    30    32   ar
    28    30     6    1
    29     6    39    1
    30     8     1    1
    31    18    14   ar
    32    18    21   ar
    33    13    14    1
    34    13    17    1
    35    13    16    1
    36    14    19   ar
    37    21    20   ar
    38    20     1    1
    39    20    22   ar
    40    19    22   ar
    41     1     2    2
    42     1     3    2
@<TRIPOS>MOLECULE
9957262
 35 38 0 0 0
SMALL
GASTEIGER

@<TRIPOS>ATOM
      1 S          -2.5865    1.1520   -0.2542 S.O2    1  LIG11       0.0668
      2 O          -2.4423   -2.4736   -0.0740 O.3     1  LIG11      -0.4435
      3 O          -0.0580   -4.0070    0.4519 O.3     1  LIG11      -0.4771
      4 O          -3.5230    1.9662   -1.0005 O.2     1  LIG11      -0.1505
      5 O          -1.4149    1.7705    0.3338 O.2     1  LIG11      -0.1505
      6 O          -4.2818   -4.7532   -0.3451 O.3     1  LIG11      -0.4914
      7 N          -2.0479   -0.0090   -1.3690 N.pl3   1  LIG11      -0.1968
      8 N           0.2158   -0.3071   -1.2570 N.ar    1  LIG11      -0.2044
      9 N           1.2359   -2.2121   -0.2720 N.ar    1  LIG11      -0.1867
     10 N           3.6924   -0.8869   -0.3911 N.ar    1  LIG11      -0.2331
     11 N           2.7699    0.5406   -2.0708 N.ar    1  LIG11      -0.2331
     12 C          -0.9714   -0.8304   -0.9268 C.ar    1  LIG11       0.1883
     13 C          -1.1623   -2.0321   -0.2724 C.ar    1  LIG11       0.2307
     14 C           0.0123   -2.7102   -0.0122 C.ar    1  LIG11       0.2639
     15 C          -2.7371   -3.3063    0.9814 C.ar    1  LIG11       0.1702
     16 C          -3.4860    0.3184    0.9731 C.2     1  LIG11       0.0729
     17 C           1.3033   -1.0059   -0.8744 C.ar    1  LIG11       0.2027
     18 C          -3.6340   -4.3694    0.7983 C.ar    1  LIG11       0.1621
     19 C          -3.3456    0.6979    2.2538 C.2     1  LIG11      -0.0353
     20 C          -4.0248    0.1133    3.4231 C.ar    1  LIG11      -0.0237
     21 C          -2.2385   -3.0337    2.2678 C.ar    1  LIG11      -0.0157
     22 C           2.6521   -0.4239   -1.1274 C.ar    1  LIG11       0.1978
     23 C          -3.9766   -5.1642    1.9019 C.ar    1  LIG11      -0.0163
     24 C          -2.5761   -3.8459    3.3505 C.ar    1  LIG11      -0.0581
     25 C          -3.4438   -4.9154    3.1668 C.ar    1  LIG11      -0.0581
     26 C          -4.8513   -1.0154    3.3592 C.ar    1  LIG11      -0.0546
     27 C          -3.8015    0.7011    4.6784 C.ar    1  LIG11      -0.0546
     28 C          -5.4207   -1.5528    4.5184 C.ar    1  LIG11      -0.0612
     29 C          -4.3771    0.1700    5.8359 C.ar    1  LIG11      -0.0612
     30 C          -5.1827   -0.9615    5.7560 C.ar    1  LIG11      -0.0617
     31 C           1.1447   -4.4554    1.0688 C.3     1  LIG11       0.0805
     32 C          -3.8203   -4.2559   -1.5918 C.3     1  LIG11       0.0790
     33 C           4.8947   -0.3299   -0.6218 C.ar    1  LIG11       0.0315
     34 C           3.9988    1.0550   -2.2601 C.ar    1  LIG11       0.0315
     35 C           5.1081    0.6549   -1.5549 C.ar    1  LIG11      -0.0254
@<TRIPOS>BOND
     1     1     4    2
     2     1     5    2
     3     1     7    1
     4     1    16    1
     5     2    13    1
     6     2    15    1
     7     3    14    1
     8     3    31    1
     9     6    18    1
    10     6    32    1
    11     7    12    1
    12     8    12   ar
    13     8    17   ar
    14     9    14   ar
    15     9    17   ar
    16    10    22   ar
    17    10    33   ar
    18    11    22   ar
    19    11    34   ar
    20    12    13   ar
    21    13    14   ar
    22    15    18   ar
    23    15    21   ar
    24    16    19    2
    25    17    22    1
    26    18    23   ar
    27    19    20    1
    28    20    26   ar
    29    20    27   ar
    30    21    24   ar
    31    23    25   ar
    32    24    25   ar
    33    26    28   ar
    34    27    29   ar
    35    28    30   ar
    36    29    30   ar
    37    33    35   ar
    38    34    35   ar
