@<TRIPOS>MOLECULE
BOSENTAN_50CONFORMERS.pdb
 39 42 0 0 0
SMALL
GASTEIGER

@<TRIPOS>ATOM
      1  S1        -1.5100   -0.9880    3.0370 S.O2    1  LGD1        0.0943
      2  O2        -0.2560   -1.8180    3.1550 O.2     1  LGD1       -0.1483
      3  O3        -1.5910    0.3650    3.6920 O.2     1  LGD1       -0.1483
      4  O4        -2.2690   -3.0770    0.0830 O.3     1  LGD1       -0.4427
      5  O5        -0.5480   -3.7990   -2.1480 O.3     1  LGD1       -0.4552
      6  O6        -4.1690   -4.3760    1.6800 O.3     1  LGD1       -0.4684
      7  O7        -1.0180   -5.1040   -4.8690 O.3     1  LGD1       -0.2162
      8  N8        -1.7640   -0.6460    1.4110 N.pl3   1  LGD1       -0.0737
      9  N9         0.3460   -0.5210    0.3760 N.ar    1  LGD1       -0.2027
     10  N10        0.9530   -2.0860   -1.3390 N.ar    1  LGD1       -0.1866
     11  N11        2.4420    1.1050   -0.7090 N.ar    1  LGD1       -0.2224
     12  N12        3.6610   -0.9450   -0.6160 N.ar    1  LGD1       -0.2224
     13  C13       -6.1710   -4.1340    5.6560 C.3     1  LGD1        0.0189
     14  C14       -4.9560   -3.4130    4.9570 C.ar    1  LGD1       -0.0227
     15  C15       -6.2850   -3.6090    7.0600 C.3     1  LGD1        0.0044
     16  C16       -5.8910   -5.6590    5.7710 C.3     1  LGD1        0.0044
     17  C17       -7.5560   -4.0550    4.8540 C.3     1  LGD1        0.0044
     18  C18       -5.2310   -2.2320    4.2200 C.ar    1  LGD1       -0.0029
     19  C19       -3.6780   -3.9110    4.9570 C.ar    1  LGD1       -0.0029
     20  C20       -2.9130   -2.0400    3.5880 C.ar    1  LGD1        0.1271
     21  C21       -4.2130   -1.5600    3.5360 C.ar    1  LGD1        0.0199
     22  C22       -2.6320   -3.1780    4.3600 C.ar    1  LGD1        0.0199
     23  C23       -0.8410   -1.1480    0.5000 C.ar    1  LGD1        0.2125
     24  C24       -1.1400   -2.3150   -0.2320 C.ar    1  LGD1        0.2327
     25  C25       -0.2520   -2.7170   -1.2580 C.ar    1  LGD1        0.2651
     26  C26        1.2270   -1.0450   -0.5030 C.ar    1  LGD1        0.2028
     27  C27       -3.5400   -2.5540    0.1290 C.ar    1  LGD1        0.1793
     28  C28        2.5200   -0.2240   -0.5960 C.ar    1  LGD1        0.1990
     29  C29        0.4400   -4.1750   -3.1220 C.3     1  LGD1        0.2426
     30  C30       -4.5150   -3.2670    0.9050 C.ar    1  LGD1        0.1730
     31  C31       -3.9450   -1.4460   -0.6310 C.ar    1  LGD1        0.0406
     32  C32       -5.8070   -2.8390    0.9550 C.ar    1  LGD1        0.0401
     33  C33       -0.0450   -5.4500   -3.7930 C.3     1  LGD1        0.2292
     34  C34       -5.2940   -1.1580   -0.6230 C.ar    1  LGD1        0.0033
     35  C35       -6.2230   -1.7500    0.1870 C.ar    1  LGD1        0.0033
     36  C36        3.5700    1.8230   -0.7500 C.ar    1  LGD1        0.1023
     37  C37        4.8260   -0.2810   -0.6300 C.ar    1  LGD1        0.1023
     38  C38        4.7640    1.1000   -0.6600 C.ar    1  LGD1        0.0414
     39  C39       -4.7020   -5.5430    1.0290 C.3     1  LGD1        0.2526
@<TRIPOS>BOND
     1    33     7    1
     2    33    29    1
     3     5    29    1
     4     5    25    1
     5    10    25   ar
     6    10    26   ar
     7    36    11   ar
     8    36    38   ar
     9    11    28   ar
    10    25    24   ar
    11    38    37   ar
    12    34    31   ar
    13    34    35   ar
    14    28    26    1
    15    28    12   ar
    16    26     9   ar
    17    31    27   ar
    18    37    12   ar
    19    24     4    1
    20    24    23   ar
    21     4    27    1
    22    27    30   ar
    23    35    32   ar
    24    15    13    1
    25     9    23   ar
    26    23     8    1
    27    30    32   ar
    28    30     6    1
    29     6    39    1
    30     8     1    1
    31    18    14   ar
    32    18    21   ar
    33    13    14    1
    34    13    17    1
    35    13    16    1
    36    14    19   ar
    37    21    20   ar
    38    20     1    1
    39    20    22   ar
    40    19    22   ar
    41     1     2    2
    42     1     3    2
@<TRIPOS>MOLECULE
01178588C
 32 34 0 0 0
SMALL
GASTEIGER

@<TRIPOS>ATOM
      1 S          -2.5117    0.5386    1.6542 S.O2    1  LIG11       0.0756
      2 C          -2.0204   -1.0122    0.9644 C.ar    1  LIG11       0.1344
      3 N          -1.8621    1.6934    0.5755 N.pl3   1  LIG11      -0.1951
      4 O          -3.9390    0.6761    1.4566 O.2     1  LIG11      -0.1499
      5 O          -1.8712    0.6690    2.9420 O.2     1  LIG11      -0.1499
      6 C          -2.3541   -2.2193    1.5811 C.ar    1  LIG11       0.0975
      7 C          -1.2200   -1.0344   -0.1903 C.ar    1  LIG11      -0.0315
      8 C          -1.4782    2.8851    1.2481 C.ar    1  LIG11       0.2006
      9 C          -3.1566   -2.4165    2.8085 C.ar    1  LIG11       0.0023
     10 N          -1.9097   -3.4071    1.0637 N.ar    1  LIG11      -0.2530
     11 C          -0.7831   -2.2472   -0.7089 C.ar    1  LIG11      -0.0417
     12 C          -0.2680    3.0530    1.9302 C.ar    1  LIG11       0.2574
     13 N          -2.4429    3.8255    1.2108 N.ar    1  LIG11      -0.2325
     14 C          -4.4516   -1.9049    2.9640 C.ar    1  LIG11      -0.0523
     15 C          -2.6653   -3.2322    3.8464 C.ar    1  LIG11      -0.0523
     16 C          -1.1513   -3.4000   -0.0506 C.ar    1  LIG11       0.0284
     17 N           0.0152    4.1952    2.6057 N.ar    1  LIG11      -0.2137
     18 O           0.6868    2.0599    1.8295 O.3     1  LIG11      -0.4773
     19 C          -2.1663    4.9412    1.9251 C.ar    1  LIG11       0.0510
     20 C          -5.1985   -2.1431    4.1244 C.ar    1  LIG11      -0.0579
     21 C          -3.4263   -3.5089    4.9903 C.ar    1  LIG11      -0.0579
     22 C          -0.9673    5.1319    2.6127 C.ar    1  LIG11       0.0602
     23 C           1.7458    2.2208    2.7652 C.3     1  LIG11       0.0805
     24 C          -4.7031   -2.9629    5.1411 C.ar    1  LIG11      -0.0465
     25 C          -0.7405    6.3805    3.4056 C.3     1  LIG11      -0.0208
     26 C          -5.5392   -3.2636    6.3709 C.3     1  LIG11      -0.0174
     27 C          -6.6397   -4.3372    6.1984 C.3     1  LIG11       0.0085
     28 C          -7.2536   -4.4006    7.6270 C.2     1  LIG11       0.0477
     29 C          -6.0678   -5.6999    5.7922 C.3     1  LIG11      -0.0544
     30 C          -7.7348   -3.9297    5.2050 C.3     1  LIG11      -0.0544
     31 O          -6.7772   -5.2860    8.3948 O.co2   1  LIG11      -0.5493
     32 O          -8.1442   -3.5399    7.8826 O.co2   1  LIG11      -0.5493
@<TRIPOS>BOND
     1     1     5    2
     2     1     4    2
     3     1     3    1
     4     1     2    1
     5     2     6   ar
     6     2     7   ar
     7     3     8    1
     8     6    10   ar
     9     6     9    1
    10     7    11   ar
    11     8    12   ar
    12     8    13   ar
    13     9    14   ar
    14     9    15   ar
    15    10    16   ar
    16    11    16   ar
    17    12    17   ar
    18    12    18    1
    19    13    19   ar
    20    14    20   ar
    21    15    21   ar
    22    17    22   ar
    23    18    23    1
    24    19    22   ar
    25    20    24   ar
    26    21    24   ar
    27    22    25    1
    28    24    26    1
    29    26    27    1
    30    27    30    1
    31    27    29    1
    32    27    28    1
    33    28    32   ar
    34    28    31   ar
