@<TRIPOS>MOLECULE
BOSENTAN_50CONFORMERS.pdb
 39 42 0 0 0
SMALL
GASTEIGER

@<TRIPOS>ATOM
      1  S1        -1.3660   -0.1150    2.9650 S.O2    1  LGD1        0.0943
      2  O2        -0.3450    0.9870    2.7690 O.2     1  LGD1       -0.1483
      3  O3        -2.6900    0.1410    3.5490 O.2     1  LGD1       -0.1483
      4  O4        -2.4050   -2.8540   -0.1530 O.3     1  LGD1       -0.4427
      5  O5        -0.5460   -3.7560   -2.0460 O.3     1  LGD1       -0.4552
      6  O6        -0.8160   -5.0270    0.8790 O.3     1  LGD1       -0.4684
      7  O7        -0.5110   -6.7440   -2.2490 O.3     1  LGD1       -0.2162
      8  N8        -1.8210   -0.6980    1.4120 N.pl3   1  LGD1       -0.0737
      9  N9         0.4140   -0.5800    0.3940 N.ar    1  LGD1       -0.2027
     10  N10        0.9880   -2.0990   -1.3950 N.ar    1  LGD1       -0.1866
     11  N11        3.3950   -0.7920   -1.7030 N.ar    1  LGD1       -0.2224
     12  N12        2.9800    0.5030    0.3180 N.ar    1  LGD1       -0.2224
     13  C13        1.8080   -4.5960    5.8740 C.3     1  LGD1        0.0189
     14  C14        1.0040   -3.4660    5.1740 C.ar    1  LGD1       -0.0227
     15  C15        2.1120   -5.6800    4.8570 C.3     1  LGD1        0.0044
     16  C16        1.0630   -5.4280    7.0090 C.3     1  LGD1        0.0044
     17  C17        3.0620   -4.0440    6.5230 C.3     1  LGD1        0.0044
     18  C18       -0.3850   -3.2210    5.4020 C.ar    1  LGD1       -0.0029
     19  C19        1.6560   -2.6570    4.2610 C.ar    1  LGD1       -0.0029
     20  C20       -0.3940   -1.3840    3.8730 C.ar    1  LGD1        0.1271
     21  C21       -1.0570   -2.2030    4.7700 C.ar    1  LGD1        0.0199
     22  C22        0.9880   -1.5490    3.6490 C.ar    1  LGD1        0.0199
     23  C23       -0.8700   -1.1650    0.5100 C.ar    1  LGD1        0.2125
     24  C24       -1.1790   -2.2420   -0.2860 C.ar    1  LGD1        0.2327
     25  C25       -0.2200   -2.6970   -1.2090 C.ar    1  LGD1        0.2651
     26  C26        1.2150   -1.0410   -0.5730 C.ar    1  LGD1        0.2028
     27  C27       -2.8340   -3.5430    1.0090 C.ar    1  LGD1        0.1793
     28  C28        2.6270   -0.3960   -0.6610 C.ar    1  LGD1        0.1990
     29  C29        0.5950   -4.5440   -2.3930 C.3     1  LGD1        0.2426
     30  C30       -2.0200   -4.6020    1.5290 C.ar    1  LGD1        0.1730
     31  C31       -3.9100   -3.0570    1.7580 C.ar    1  LGD1        0.0406
     32  C32       -2.3750   -5.1750    2.7290 C.ar    1  LGD1        0.0401
     33  C33        0.0760   -5.8030   -3.1590 C.3     1  LGD1        0.2292
     34  C34       -4.2060   -3.5890    3.0330 C.ar    1  LGD1        0.0033
     35  C35       -3.4170   -4.6480    3.4780 C.ar    1  LGD1        0.0033
     36  C36        4.7210   -0.3690   -1.6230 C.ar    1  LGD1        0.1023
     37  C37        4.2420    1.0110    0.2880 C.ar    1  LGD1        0.1023
     38  C38        5.1370    0.5070   -0.6100 C.ar    1  LGD1        0.0414
     39  C39        0.4630   -4.7420    1.5850 C.3     1  LGD1        0.2526
@<TRIPOS>BOND
     1    33     7    1
     2    33    29    1
     3     5    29    1
     4     5    25    1
     5    10    25   ar
     6    10    26   ar
     7    36    11   ar
     8    36    38   ar
     9    11    28   ar
    10    25    24   ar
    11    38    37   ar
    12    34    31   ar
    13    34    35   ar
    14    28    26    1
    15    28    12   ar
    16    26     9   ar
    17    31    27   ar
    18    37    12   ar
    19    24     4    1
    20    24    23   ar
    21     4    27    1
    22    27    30   ar
    23    35    32   ar
    24    15    13    1
    25     9    23   ar
    26    23     8    1
    27    30    32   ar
    28    30     6    1
    29     6    39    1
    30     8     1    1
    31    18    14   ar
    32    18    21   ar
    33    13    14    1
    34    13    17    1
    35    13    16    1
    36    14    19   ar
    37    21    20   ar
    38    20     1    1
    39    20    22   ar
    40    19    22   ar
    41     1     2    2
    42     1     3    2
@<TRIPOS>MOLECULE
123882
 66 71 0 0 0
SMALL
GASTEIGER

@<TRIPOS>ATOM
      1 S          -2.8817   -5.7818    3.0428 S.2     3  UNK33      -0.0993
      2 O           3.3989   -1.8768   -4.5546 O.2     1  UNK11      -0.2755
      3 O           4.4737   -6.9983    4.7384 O.2     4  LEU44      -0.2738
      4 O           2.2582   -2.7733   -0.9464 O.2     1  UNK11      -0.2737
      5 O           4.0977   -4.7419    1.4293 O.2     5  TRP55      -0.2738
      6 O           6.0094   -1.8966   -0.4165 O.2     6  ASP66      -0.2738
      7 O           0.0258   -6.3467    3.9171 O.2     3  UNK33      -0.2734
      8 O           1.1171   -6.9342   -0.4542 O.2     2  ASP22      -0.2737
      9 OD1         8.5379   -4.6201    2.7106 O.co2   6  ASP66      -0.5497
     10 OD2         9.5938   -5.5137    0.8852 O.co2   6  ASP66      -0.5497
     11 OD1        -0.5958   -4.8219   -4.9456 O.co2   2  ASP22      -0.5497
     12 OD2         1.6582   -5.1881   -4.7571 O.co2   2  ASP22      -0.5497
     13 N           4.2608   -3.3569   -6.0749 N.am    1  UNK11      -0.2984
     14 N           5.0909   -3.6992   -8.8410 N.pl3   1  UNK11      -0.3269
     15 N           5.1467   -3.8500   -1.2698 N.am    1  UNK11      -0.3020
     16 N           3.3490   -5.1869    3.9185 N.am    5  TRP55      -0.3022
     17 N           1.6828   -6.6241    2.3973 N.am    4  LEU44      -0.3022
     18 N           6.0891   -3.7552    1.9854 N.am    6  ASP66      -0.3021
     19 N           2.2798   -4.6811   -2.1936 N.am    2  ASP22      -0.3021
     20 N           0.1609   -5.0906    0.4479 N.am    3  UNK33      -0.2984
     21 NE1         1.6618   -1.0442    2.4278 N.ar    5  TRP55      -0.3604
     22 C           3.5271   -2.7046   -7.1623 C.3     1  UNK11       0.0304
     23 C           5.0163   -4.5585   -6.4560 C.3     1  UNK11       0.0304
     24 C           3.6727   -3.4213   -8.5167 C.3     1  UNK11       0.0280
     25 C           5.8606   -4.3218   -7.7298 C.3     1  UNK11       0.0280
     26 C           4.0291   -2.9136   -4.7801 C.2     1  UNK11       0.2179
     27 C           4.6613   -3.7132   -3.6571 C.3     1  UNK11       0.0510
     28 C           4.2784   -3.2039   -2.2640 C.3     1  UNK11       0.1076
     29 CA          2.5591   -7.4246    3.2737 C.3     4  LEU44       0.0997
     30 CB          3.2710   -8.4703    2.3932 C.3     4  LEU44      -0.0236
     31 CA          4.4984   -4.2955    3.7958 C.3     5  TRP55       0.1034
     32 C           5.8260   -2.8294   -9.6553 C.ar    1  UNK11       0.0298
     33 CG          4.1229   -9.5432    3.0999 C.3     4  LEU44      -0.0446
     34 CB          4.2107   -2.8930    4.3431 C.3     5  TRP55       0.0013
     35 C           3.5698   -6.5417    4.0430 C.2     4  LEU44       0.2340
     36 CA          6.6488   -4.0040    0.6567 C.3     6  ASP66       0.1045
     37 C           2.8256   -3.4799   -1.7860 C.2     1  UNK11       0.2344
     38 CG          2.9887   -2.2333    3.7682 C.ar    5  TRP55      -0.0201
     39 C           4.8561   -4.2863    2.2899 C.2     5  TRP55       0.2343
     40 C           5.9186   -3.1227   -0.3833 C.2     6  ASP66       0.2343
     41 CA          0.8780   -4.9778   -1.9197 C.3     2  ASP22       0.1045
     42 CD2         3.3585  -10.2877    4.1928 C.3     4  LEU44      -0.0626
     43 CD1         4.6477  -10.5423    2.0620 C.3     4  LEU44      -0.0626
     44 C          -0.4896   -5.8028    1.5494 C.3     3  UNK33       0.1311
     45 C           7.0633   -3.2387  -10.1856 C.ar    1  UNK11      -0.0407
     46 C           5.3954   -1.5387   -9.9956 C.ar    1  UNK11      -0.0407
     47 CD2         1.6378   -2.3417    4.2397 C.ar    5  TRP55       0.0029
     48 C           0.4196   -6.1992    2.7591 C.2     3  UNK33       0.2390
     49 CB          8.1377   -3.6861    0.5971 C.3     6  ASP66       0.0138
     50 CD1         2.9575   -1.4171    2.6561 C.ar    5  TRP55       0.0060
     51 CE2         0.8366   -1.5721    3.3940 C.ar    5  TRP55       0.0467
     52 C           0.7483   -5.7670   -0.5948 C.2     2  ASP22       0.2345
     53 CB          0.2530   -5.8539   -3.0068 C.3     2  ASP22       0.0138
     54 C           7.8414   -2.3988  -10.9917 C.ar    1  UNK11      -0.0600
     55 C           6.1692   -0.6892  -10.7980 C.ar    1  UNK11      -0.0600
     56 C          -1.7569   -5.0574    1.9494 C.ar    3  UNK33       0.0189
     57 CE3         1.0185   -3.0438    5.2943 C.ar    5  TRP55      -0.0523
     58 C           7.3947   -1.1180  -11.2943 C.ar    1  UNK11      -0.0616
     59 CZ2        -0.5458   -1.4478    3.5695 C.ar    5  TRP55      -0.0378
     60 CG          8.8274   -4.7087    1.4797 C.2     6  ASP66       0.0440
     61 CZ3        -0.3655   -2.9462    5.4720 C.ar    5  TRP55      -0.0611
     62 C          -2.2736   -3.8652    1.4610 C.ar    3  UNK33      -0.0493
     63 CH2        -1.1342   -2.1515    4.6269 C.ar    5  TRP55      -0.0598
     64 CG          0.4510   -5.2176   -4.3682 C.2     2  ASP22       0.0440
     65 C          -3.5381   -3.5270    2.0256 C.ar    3  UNK33      -0.0544
     66 C          -3.9662   -4.4712    2.9276 C.ar    3  UNK33      -0.0240
@<TRIPOS>BOND
     1     1    56   ar
     2     1    66   ar
     3     2    26    2
     4     3    35    2
     5     4    37    2
     6     5    39    2
     7     6    40    2
     8     7    48    2
     9     8    52    2
    10     9    60   ar
    11    10    60   ar
    12    11    64   ar
    13    12    64   ar
    14    13    22    1
    15    13    23    1
    16    14    24    1
    17    14    25    1
    18    14    32    1
    19    15    28    1
    20    15    40   am
    21    16    35   am
    22    16    31    1
    23    17    48   am
    24    17    29    1
    25    18    39   am
    26    18    36    1
    27    19    37   am
    28    19    41    1
    29    20    52   am
    30    20    44    1
    31    21    50   ar
    32    21    51   ar
    33    22    24    1
    34    23    25    1
    35    26    27    1
    36    26    13   am
    37    28    37    1
    38    28    27    1
    39    29    35    1
    40    29    30    1
    41    30    33    1
    42    31    39    1
    43    31    34    1
    44    32    45   ar
    45    32    46   ar
    46    33    43    1
    47    33    42    1
    48    34    38    1
    49    36    40    1
    50    36    49    1
    51    38    47   ar
    52    38    50   ar
    53    41    52    1
    54    41    53    1
    55    44    48    1
    56    44    56    1
    57    45    54   ar
    58    46    55   ar
    59    47    57   ar
    60    47    51   ar
    61    49    60    1
    62    51    59   ar
    63    53    64    1
    64    54    58   ar
    65    55    58   ar
    66    56    62   ar
    67    57    61   ar
    68    59    63   ar
    69    61    63   ar
    70    62    65   ar
    71    65    66   ar
