@<TRIPOS>MOLECULE
BOSENTAN_50CONFORMERS.pdb
 39 42 0 0 0
SMALL
GASTEIGER

@<TRIPOS>ATOM
      1  S1        -1.2370    0.1620    2.8570 S.O2    1  LGD1        0.0943
      2  O2        -0.4130    1.3820    2.4810 O.2     1  LGD1       -0.1483
      3  O3        -2.4530    0.3900    3.6750 O.2     1  LGD1       -0.1483
      4  O4        -2.3880   -2.7650   -0.1120 O.3     1  LGD1       -0.4427
      5  O5        -0.4890   -3.7900   -2.0520 O.3     1  LGD1       -0.4552
      6  O6        -1.1040   -3.8950    2.1700 O.3     1  LGD1       -0.4684
      7  O7        -0.7000   -5.4660   -4.4110 O.3     1  LGD1       -0.2162
      8  N8        -1.7620   -0.7360    1.5000 N.pl3   1  LGD1       -0.0737
      9  N9         0.3470   -0.5510    0.3410 N.ar    1  LGD1       -0.2027
     10  N10        0.9890   -2.1210   -1.3840 N.ar    1  LGD1       -0.1866
     11  N11        3.2780   -0.3800    0.5340 N.ar    1  LGD1       -0.2224
     12  N12        2.7470    0.2870   -1.8070 N.ar    1  LGD1       -0.2224
     13  C13        2.1080   -3.6810    6.4250 C.3     1  LGD1        0.0189
     14  C14        1.3330   -2.5870    5.6550 C.ar    1  LGD1       -0.0227
     15  C15        3.5950   -3.5340    6.3770 C.3     1  LGD1        0.0044
     16  C16        1.7960   -4.9780    5.7160 C.3     1  LGD1        0.0044
     17  C17        1.7710   -3.9110    7.8870 C.3     1  LGD1        0.0044
     18  C18        1.9210   -1.6830    4.7520 C.ar    1  LGD1       -0.0029
     19  C19       -0.0800   -2.6910    5.6780 C.ar    1  LGD1       -0.0029
     20  C20       -0.2550   -0.9230    3.9280 C.ar    1  LGD1        0.1271
     21  C21        1.1720   -0.8700    3.9210 C.ar    1  LGD1        0.0199
     22  C22       -0.8600   -1.8310    4.8160 C.ar    1  LGD1        0.0199
     23  C23       -0.8840   -1.1100    0.4780 C.ar    1  LGD1        0.2125
     24  C24       -1.1770   -2.1770   -0.3220 C.ar    1  LGD1        0.2327
     25  C25       -0.2380   -2.6790   -1.2270 C.ar    1  LGD1        0.2651
     26  C26        1.1970   -1.1130   -0.5260 C.ar    1  LGD1        0.2028
     27  C27       -2.5230   -4.0940    0.2060 C.ar    1  LGD1        0.1793
     28  C28        2.5370   -0.3470   -0.5690 C.ar    1  LGD1        0.1990
     29  C29       -1.3770   -3.5150   -3.1800 C.3     1  LGD1        0.2426
     30  C30       -1.8710   -4.6400    1.2460 C.ar    1  LGD1        0.1730
     31  C31       -3.4000   -4.9600   -0.5370 C.ar    1  LGD1        0.0406
     32  C32       -2.0650   -5.9920    1.6420 C.ar    1  LGD1        0.0401
     33  C33       -1.8600   -4.8150   -3.8350 C.3     1  LGD1        0.2292
     34  C34       -3.5370   -6.3420   -0.2630 C.ar    1  LGD1        0.0033
     35  C35       -2.8310   -6.8840    0.8430 C.ar    1  LGD1        0.0033
     36  C36        4.3580    0.4000    0.4620 C.ar    1  LGD1        0.1023
     37  C37        3.8670    1.0790   -1.8320 C.ar    1  LGD1        0.1023
     38  C38        4.6930    1.1800   -0.6750 C.ar    1  LGD1        0.0414
     39  C39        0.3750   -4.0230    2.0230 C.3     1  LGD1        0.2526
@<TRIPOS>BOND
     1    33     7    1
     2    33    29    1
     3     5    29    1
     4     5    25    1
     5    10    25   ar
     6    10    26   ar
     7    36    11   ar
     8    36    38   ar
     9    11    28   ar
    10    25    24   ar
    11    38    37   ar
    12    34    31   ar
    13    34    35   ar
    14    28    26    1
    15    28    12   ar
    16    26     9   ar
    17    31    27   ar
    18    37    12   ar
    19    24     4    1
    20    24    23   ar
    21     4    27    1
    22    27    30   ar
    23    35    32   ar
    24    15    13    1
    25     9    23   ar
    26    23     8    1
    27    30    32   ar
    28    30     6    1
    29     6    39    1
    30     8     1    1
    31    18    14   ar
    32    18    21   ar
    33    13    14    1
    34    13    17    1
    35    13    16    1
    36    14    19   ar
    37    21    20   ar
    38    20     1    1
    39    20    22   ar
    40    19    22   ar
    41     1     2    2
    42     1     3    2
@<TRIPOS>MOLECULE
9911482
 30 32 0 0 0
SMALL
GASTEIGER

@<TRIPOS>ATOM
      1 S          -1.8006   -8.0712    2.6966 S.O2    1  LIG11       0.0758
      2 S          -2.5355   -4.4737    0.5403 S.2     1  LIG11      -0.0902
      3 O           0.6827  -10.5030    3.0394 O.2     1  LIG11      -0.3377
      4 O          -2.4286   -9.2343    2.1068 O.2     1  LIG11      -0.1499
      5 O          -2.2071   -7.5702    3.9910 O.2     1  LIG11      -0.1499
      6 O          -0.0598   -5.5331    3.3088 O.2     1  LIG11      -0.2692
      7 O           2.9229   -3.8544    3.1970 O.2     1  LIG11      -0.2923
      8 N          -1.1940   -3.5517    3.0512 N.am    1  LIG11      -0.2802
      9 N          -0.1171   -8.2133    2.6846 N.pl3   1  LIG11      -0.1831
     10 N           1.0679  -11.5876    2.2708 N.ar    1  LIG11      -0.0810
     11 C          -0.4285   -2.7655    3.9421 C.ar    1  LIG11       0.0471
     12 C          -2.2386   -6.7809    1.6158 C.ar    1  LIG11       0.1277
     13 C          -1.1203   -1.9611    4.8766 C.ar    1  LIG11      -0.0283
     14 C           0.9840   -2.7243    3.9177 C.ar    1  LIG11       0.0388
     15 C          -1.8467   -5.4629    1.7707 C.ar    1  LIG11       0.1007
     16 C           1.0056   -1.1370    5.7698 C.ar    1  LIG11      -0.0494
     17 C          -0.3901   -1.1498    5.7687 C.ar    1  LIG11      -0.0541
     18 C           1.6837   -1.9281    4.8420 C.ar    1  LIG11      -0.0466
     19 C          -0.9453   -4.8859    2.7613 C.2     1  LIG11       0.2568
     20 C           0.3282   -9.4762    2.2261 C.ar    1  LIG11       0.2399
     21 C          -3.0932   -6.9707    0.4826 C.ar    1  LIG11      -0.0273
     22 C           0.5448   -9.8261    0.9124 C.ar    1  LIG11       0.0350
     23 C          -2.6195   -1.9436    5.0389 C.3     1  LIG11      -0.0379
     24 C           1.8466   -3.3521    2.8759 C.2     1  LIG11       0.1619
     25 C           0.9812  -11.1768    0.9998 C.ar    1  LIG11       0.0854
     26 C          -3.3258   -5.7960   -0.1929 C.ar    1  LIG11      -0.0217
     27 C           1.7738   -0.2624    6.7156 C.3     1  LIG11      -0.0397
     28 C           0.3951   -9.0014   -0.3062 C.3     1  LIG11      -0.0330
     29 C           1.3458  -12.0908   -0.1079 C.3     1  LIG11      -0.0188
     30 C           1.4447   -3.2419    1.4270 C.3     1  LIG11      -0.0013
@<TRIPOS>BOND
     1     1     4    2
     2     1     5    2
     3     1     9    1
     4     1    12    1
     5     2    15   ar
     6     2    26   ar
     7     3    10   ar
     8     3    20   ar
     9     6    19    2
    10     7    24    2
    11     8    11    1
    12     8    19   am
    13     9    20    1
    14    10    25   ar
    15    11    13   ar
    16    11    14   ar
    17    12    15   ar
    18    12    21   ar
    19    13    17   ar
    20    13    23    1
    21    14    18   ar
    22    14    24    1
    23    15    19    1
    24    16    17   ar
    25    16    18   ar
    26    16    27    1
    27    20    22   ar
    28    21    26   ar
    29    22    25   ar
    30    22    28    1
    31    24    30    1
    32    25    29    1
