@<TRIPOS>MOLECULE
104865
 68 71 0 0 0
SMALL
GASTEIGER

@<TRIPOS>ATOM
      1 S           0.7647    2.2115    2.8010 S.O2    1  LIG1        0.0736
      2 O           0.0660    2.6326    4.0097 O.2     1  LIG1       -0.1499
      3 O           2.1478    2.6295    2.6077 O.2     1  LIG1       -0.1499
      4 O          -1.2631   -0.8198    1.0713 O.3     1  LIG1       -0.4435
      5 O          -0.4214   -1.9610   -1.3136 O.3     1  LIG1       -0.4715
      6 O          -3.4782   -1.6352   -0.4224 O.3     1  LIG1       -0.4914
      7 O          -1.5534   -4.2488   -2.4615 O.3     1  LIG1       -0.3917
      8 N           0.6609    0.4950    2.6938 N.pl3   1  LIG1       -0.1963
      9 N           2.2979   -0.0459    1.0826 N.ar    1  LIG1       -0.2044
     10 N           1.7517   -1.2732   -0.9181 N.ar    1  LIG1       -0.1866
     11 N           4.8247    0.0752    0.3184 N.ar    1  LIG1       -0.2331
     12 N           4.2782   -1.1526   -1.6819 N.ar    1  LIG1       -0.2331
     13 C          -2.5109    4.0618   -1.9667 C.3     1  LIG1       -0.0127
     14 C          -1.6811    3.5939   -0.7596 C.ar    1  LIG1       -0.0419
     15 C          -3.1573    5.4287   -1.6541 C.3     1  LIG1       -0.0560
     16 C          -3.6215    3.0313   -2.2647 C.3     1  LIG1       -0.0560
     17 C          -1.6872    4.2325   -3.2632 C.3     1  LIG1       -0.0560
     18 C          -2.2975    3.3974    0.4762 C.ar    1  LIG1       -0.0562
     19 C          -0.3125    3.3646   -0.9005 C.ar    1  LIG1       -0.0562
     20 C          -0.1766    2.7427    1.4300 C.ar    1  LIG1        0.1086
     21 C          -1.5454    2.9719    1.5709 C.ar    1  LIG1       -0.0348
     22 C           0.4398    2.9391    0.1943 C.ar    1  LIG1       -0.0348
     23 C           0.9999   -0.1266    1.4420 C.ar    1  LIG1        0.1883
     24 C           0.0326   -0.7553    0.6851 C.ar    1  LIG1        0.2307
     25 C           0.4705   -1.3162   -0.4973 C.ar    1  LIG1        0.2642
     26 C           2.5999   -0.6321   -0.0916 C.ar    1  LIG1        0.2027
     27 C          -1.8264   -2.0755    1.2542 C.ar    1  LIG1        0.1702
     28 C           3.9764   -0.5660   -0.5078 C.ar    1  LIG1        0.1978
     29 C           0.0973   -2.5159   -2.5165 C.3     1  LIG1        0.1143
     30 C          -2.9322   -2.4728    0.5027 C.ar    1  LIG1        0.1621
     31 C          -1.2765   -2.9426    2.1983 C.ar    1  LIG1       -0.0157
     32 C          -3.4883   -3.7375    0.6954 C.ar    1  LIG1       -0.0163
     33 C          -1.0259   -3.2032   -3.2688 C.3     1  LIG1        0.0783
     34 C          -1.8327   -4.2073    2.3910 C.ar    1  LIG1       -0.0581
     35 C          -2.9386   -4.6047    1.6396 C.ar    1  LIG1       -0.0581
     36 C           6.1060    0.1180   -0.1023 C.ar    1  LIG1        0.0315
     37 C           5.5761   -1.0720   -2.0412 C.ar    1  LIG1        0.0315
     38 C           6.5437   -0.4432   -1.2844 C.ar    1  LIG1       -0.0254
     39 C          -4.6070   -2.1183   -1.1481 C.3     1  LIG1        0.0790
     40 H          -2.3957    6.1782   -1.4081 H       1  LIG1        0.0238
     41 H          -3.8516    5.3755   -0.8084 H       1  LIG1        0.0238
     42 H          -3.7274    5.8021   -2.5129 H       1  LIG1        0.0238
     43 H          -4.3263    2.9286   -1.4324 H       1  LIG1        0.0238
     44 H          -3.1971    2.0391   -2.4602 H       1  LIG1        0.0238
     45 H          -4.2061    3.3233   -3.1449 H       1  LIG1        0.0238
     46 H          -1.2262    3.2896   -3.5803 H       1  LIG1        0.0238
     47 H          -0.8978    4.9847   -3.1487 H       1  LIG1        0.0238
     48 H          -2.3250    4.5667   -4.0909 H       1  LIG1        0.0238
     49 H          -3.3616    3.5663    0.6127 H       1  LIG1        0.0621
     50 H           0.2163    3.5003   -1.8372 H       1  LIG1        0.0621
     51 H          -2.0481    2.8177    2.5215 H       1  LIG1        0.0637
     52 H           1.5040    2.7658    0.0613 H       1  LIG1        0.0637
     53 H          -0.1600    0.0806    3.1552 H       1  LIG1        0.1754
     54 H           0.8686   -3.2571   -2.2723 H       1  LIG1        0.0720
     55 H           0.5230   -1.7261   -3.1465 H       1  LIG1        0.0720
     56 H          -0.4212   -2.6461    2.7992 H       1  LIG1        0.0655
     57 H          -4.3456   -4.1137    0.1481 H       1  LIG1        0.0655
     58 H          -0.6621   -3.6300   -4.2079 H       1  LIG1        0.0591
     59 H          -1.8380   -2.4992   -3.4759 H       1  LIG1        0.0591
     60 H          -1.4060   -4.8818    3.1275 H       1  LIG1        0.0619
     61 H          -3.3709   -5.5897    1.7906 H       1  LIG1        0.0619
     62 H           6.7940    0.6336    0.5592 H       1  LIG1        0.0831
     63 H           5.8255   -1.5427   -2.9863 H       1  LIG1        0.0831
     64 H           7.5780   -0.3937   -1.5975 H       1  LIG1        0.0648
     65 H          -4.3505   -2.9898   -1.7599 H       1  LIG1        0.0660
     66 H          -5.4603   -2.3080   -0.4881 H       1  LIG1        0.0660
     67 H          -4.9094   -1.3239   -1.8385 H       1  LIG1        0.0660
     68 H          -2.2791   -4.6579   -2.9632 H       1  LIG1        0.2095
@<TRIPOS>BOND
     1     1     2    2
     2     1     3    2
     3     1     8    1
     4     1    20    1
     5     4    24    1
     6     4    27    1
     7     5    25    1
     8     5    29    1
     9     6    30    1
    10     6    39    1
    11     7    33    1
    12     7    68    1
    13     8    23    1
    14     8    53    1
    15     9    23   ar
    16     9    26   ar
    17    10    25   ar
    18    10    26   ar
    19    11    28   ar
    20    11    36   ar
    21    12    28   ar
    22    12    37   ar
    23    13    14    1
    24    13    15    1
    25    13    16    1
    26    13    17    1
    27    14    18   ar
    28    14    19   ar
    29    15    40    1
    30    15    41    1
    31    15    42    1
    32    16    43    1
    33    16    44    1
    34    16    45    1
    35    17    46    1
    36    17    47    1
    37    17    48    1
    38    18    21   ar
    39    18    49    1
    40    19    22   ar
    41    19    50    1
    42    20    21   ar
    43    20    22   ar
    44    21    51    1
    45    22    52    1
    46    23    24   ar
    47    24    25   ar
    48    26    28    1
    49    27    30   ar
    50    27    31   ar
    51    29    33    1
    52    29    54    1
    53    29    55    1
    54    30    32   ar
    55    31    34   ar
    56    31    56    1
    57    32    35   ar
    58    32    57    1
    59    33    58    1
    60    33    59    1
    61    34    35   ar
    62    34    60    1
    63    35    61    1
    64    36    38   ar
    65    36    62    1
    66    37    38   ar
    67    37    63    1
    68    38    64    1
    69    39    65    1
    70    39    66    1
    71    39    67    1
