@<TRIPOS>MOLECULE
BOSENTAN_50CONFORMERS.pdb
 39 42 0 0 0
SMALL
GASTEIGER

@<TRIPOS>ATOM
      1  S1        -2.2100    0.8910    1.6560 S.O2    1  LGD1        0.0943
      2  O2        -3.6490    0.8670    2.0450 O.2     1  LGD1       -0.1483
      3  O3        -1.2600    1.5580    2.5080 O.2     1  LGD1       -0.1483
      4  O4        -2.3850   -2.9130   -0.0870 O.3     1  LGD1       -0.4427
      5  O5        -0.5280   -3.6880   -2.1330 O.3     1  LGD1       -0.4552
      6  O6        -2.6800   -1.2320   -2.4200 O.3     1  LGD1       -0.4684
      7  O7         0.5730   -5.7640   -3.9500 O.3     1  LGD1       -0.2162
      8  N8        -1.7610   -0.7060    1.4300 N.pl3   1  LGD1       -0.0737
      9  N9         0.3420   -0.5020    0.3260 N.ar    1  LGD1       -0.2027
     10  N10        0.9800   -2.1490   -1.2950 N.ar    1  LGD1       -0.1866
     11  N11        2.7090    0.3860   -1.7460 N.ar    1  LGD1       -0.2224
     12  N12        3.3510   -0.5520    0.3280 N.ar    1  LGD1       -0.2224
     13  C13       -1.3880    3.3940   -3.9040 C.3     1  LGD1        0.0189
     14  C14       -1.6690    2.8260   -2.4750 C.ar    1  LGD1       -0.0227
     15  C15       -2.3300    2.9240   -5.0310 C.3     1  LGD1        0.0044
     16  C16        0.0230    3.1680   -4.4080 C.3     1  LGD1        0.0044
     17  C17       -1.6750    4.9520   -3.8190 C.3     1  LGD1        0.0044
     18  C18       -0.6570    2.7740   -1.5080 C.ar    1  LGD1       -0.0029
     19  C19       -2.8800    2.1980   -2.1100 C.ar    1  LGD1       -0.0029
     20  C20       -2.0200    1.6530    0.0630 C.ar    1  LGD1        0.1271
     21  C21       -0.8150    2.2360   -0.2570 C.ar    1  LGD1        0.0199
     22  C22       -3.0480    1.5460   -0.8880 C.ar    1  LGD1        0.0199
     23  C23       -0.8250   -1.1310    0.5010 C.ar    1  LGD1        0.2125
     24  C24       -1.1650   -2.2800   -0.2740 C.ar    1  LGD1        0.2327
     25  C25       -0.2430   -2.7600   -1.1940 C.ar    1  LGD1        0.2651
     26  C26        1.1830   -1.0600   -0.5540 C.ar    1  LGD1        0.2028
     27  C27       -3.1620   -3.2130   -1.1610 C.ar    1  LGD1        0.1793
     28  C28        2.4780   -0.2990   -0.6400 C.ar    1  LGD1        0.1990
     29  C29       -0.3750   -5.1270   -1.7850 C.3     1  LGD1        0.2426
     30  C30       -3.2680   -2.4770   -2.3200 C.ar    1  LGD1        0.1730
     31  C31       -3.9780   -4.3280   -1.0640 C.ar    1  LGD1        0.0406
     32  C32       -4.1070   -2.8440   -3.3820 C.ar    1  LGD1        0.0401
     33  C33       -0.4930   -6.0060   -3.0100 C.3     1  LGD1        0.2292
     34  C34       -4.7580   -4.7850   -2.1190 C.ar    1  LGD1        0.0033
     35  C35       -4.8170   -4.0590   -3.2820 C.ar    1  LGD1        0.0033
     36  C36        3.9930    0.9670   -1.8590 C.ar    1  LGD1        0.1023
     37  C37        4.6300   -0.0210    0.2350 C.ar    1  LGD1        0.1023
     38  C38        4.8980    0.7820   -0.8340 C.ar    1  LGD1        0.0414
     39  C39       -1.8120   -0.9830   -3.6390 C.3     1  LGD1        0.2526
@<TRIPOS>BOND
     1    33     7    1
     2    33    29    1
     3     5    29    1
     4     5    25    1
     5    10    25   ar
     6    10    26   ar
     7    36    11   ar
     8    36    38   ar
     9    11    28   ar
    10    25    24   ar
    11    38    37   ar
    12    34    31   ar
    13    34    35   ar
    14    28    26    1
    15    28    12   ar
    16    26     9   ar
    17    31    27   ar
    18    37    12   ar
    19    24     4    1
    20    24    23   ar
    21     4    27    1
    22    27    30   ar
    23    35    32   ar
    24    15    13    1
    25     9    23   ar
    26    23     8    1
    27    30    32   ar
    28    30     6    1
    29     6    39    1
    30     8     1    1
    31    18    14   ar
    32    18    21   ar
    33    13    14    1
    34    13    17    1
    35    13    16    1
    36    14    19   ar
    37    21    20   ar
    38    20     1    1
    39    20    22   ar
    40    19    22   ar
    41     1     2    2
    42     1     3    2
@<TRIPOS>MOLECULE
159594
 37 40 0 0 0
SMALL
GASTEIGER

@<TRIPOS>ATOM
      1 O          -6.8777    0.8710   -3.2859 O.co2   1  LIG11      -0.5493
      2 O          -6.7027    1.0915   -1.0184 O.co2   1  LIG11      -0.5493
      3 O          -5.3338   -6.1778   -3.4746 O.3     1  LIG11      -0.4526
      4 O          -4.4464    1.4969   -6.2220 O.2     1  LIG11      -0.2697
      5 O          -3.6908   -6.5105   -1.7421 O.3     1  LIG11      -0.4526
      6 O          -1.0398    3.4109    1.4136 O.3     1  LIG11      -0.4951
      7 N          -3.3455    0.1923   -3.8179 N.3     1  LIG11       0.2481
      8 N          -2.7256    3.0039   -6.4116 N.am    1  LIG11      -0.2971
      9 C          -5.0576   -0.1078   -2.1726 C.3     1  LIG11       0.0574
     10 C          -5.1535   -1.2536   -3.1863 C.3     1  LIG11       0.0378
     11 C          -4.1225    0.9638   -2.7486 C.3     1  LIG11       0.0143
     12 C          -4.3829   -0.7444   -4.4044 C.3     1  LIG11      -0.0230
     13 C          -4.6550   -2.6238   -2.7491 C.ar    1  LIG11      -0.0347
     14 C          -3.2542    1.6169   -1.6718 C.ar    1  LIG11       0.0011
     15 C          -2.5632    1.0519   -4.8056 C.3     1  LIG11       0.0468
     16 C          -6.3571    0.6778   -2.1540 C.2     1  LIG11       0.0513
     17 C          -5.2324   -3.7465   -3.3827 C.ar    1  LIG11      -0.0125
     18 C          -3.3366    1.8727   -5.8533 C.2     1  LIG11       0.2608
     19 C          -3.6809   -2.8313   -1.7504 C.ar    1  LIG11      -0.0544
     20 C          -3.8470    2.6113   -0.8676 C.ar    1  LIG11      -0.0498
     21 C          -1.9196    1.2821   -1.4055 C.ar    1  LIG11      -0.0498
     22 C          -4.8469   -5.0069   -2.9835 C.ar    1  LIG11       0.1665
     23 C          -3.3039   -4.1296   -1.3706 C.ar    1  LIG11      -0.0159
     24 C          -3.9105   -5.1950   -1.9998 C.ar    1  LIG11       0.1662
     25 C          -3.1452    3.2327    0.1717 C.ar    1  LIG11      -0.0195
     26 C          -1.2113    1.9240   -0.3793 C.ar    1  LIG11      -0.0195
     27 C          -1.2600    3.1156   -6.5014 C.3     1  LIG11       0.0148
     28 C          -3.4558    3.7708   -7.4456 C.3     1  LIG11       0.0148
     29 C          -1.8271    2.8833    0.4277 C.ar    1  LIG11       0.1201
     30 C          -0.5526    3.7538   -5.3022 C.3     1  LIG11      -0.0374
     31 C          -4.9498    4.0473   -7.2154 C.3     1  LIG11      -0.0374
     32 C          -4.6499   -7.1248   -2.6299 C.3     1  LIG11       0.2332
     33 C          -1.2046    5.0362   -4.7948 C.3     1  LIG11      -0.0545
     34 C          -5.5362    5.0657   -8.2023 C.3     1  LIG11      -0.0545
     35 C          -0.4500    5.5829   -3.5913 C.3     1  LIG11      -0.0652
     36 C          -5.4711    4.6100   -9.6546 C.3     1  LIG11      -0.0652
     37 C          -1.7350    3.9797    2.5192 C.3     1  LIG11       0.0788
@<TRIPOS>BOND
     1     1    16   ar
     2     2    16   ar
     3     3    22    1
     4     3    32    1
     5     4    18    2
     6     5    24    1
     7     5    32    1
     8     6    29    1
     9     6    37    1
    10     7    11    1
    11     7    12    1
    12     7    15    1
    13     8    18   am
    14     8    27    1
    15     8    28    1
    16     9    10    1
    17     9    11    1
    18     9    16    1
    19    10    12    1
    20    10    13    1
    21    11    14    1
    22    13    17   ar
    23    13    19   ar
    24    14    20   ar
    25    14    21   ar
    26    15    18    1
    27    17    22   ar
    28    19    23   ar
    29    20    25   ar
    30    21    26   ar
    31    22    24   ar
    32    23    24   ar
    33    25    29   ar
    34    26    29   ar
    35    27    30    1
    36    28    31    1
    37    30    33    1
    38    31    34    1
    39    33    35    1
    40    34    36    1
