@<TRIPOS>MOLECULE
BOSENTAN_50CONFORMERS.pdb
 39 42 0 0 0
SMALL
GASTEIGER

@<TRIPOS>ATOM
      1  S1        -2.2100    0.8910    1.6560 S.O2    1  LGD1        0.0943
      2  O2        -3.6490    0.8670    2.0450 O.2     1  LGD1       -0.1483
      3  O3        -1.2600    1.5580    2.5080 O.2     1  LGD1       -0.1483
      4  O4        -2.3850   -2.9130   -0.0870 O.3     1  LGD1       -0.4427
      5  O5        -0.5280   -3.6880   -2.1330 O.3     1  LGD1       -0.4552
      6  O6        -2.6800   -1.2320   -2.4200 O.3     1  LGD1       -0.4684
      7  O7         0.5730   -5.7640   -3.9500 O.3     1  LGD1       -0.2162
      8  N8        -1.7610   -0.7060    1.4300 N.pl3   1  LGD1       -0.0737
      9  N9         0.3420   -0.5020    0.3260 N.ar    1  LGD1       -0.2027
     10  N10        0.9800   -2.1490   -1.2950 N.ar    1  LGD1       -0.1866
     11  N11        2.7090    0.3860   -1.7460 N.ar    1  LGD1       -0.2224
     12  N12        3.3510   -0.5520    0.3280 N.ar    1  LGD1       -0.2224
     13  C13       -1.3880    3.3940   -3.9040 C.3     1  LGD1        0.0189
     14  C14       -1.6690    2.8260   -2.4750 C.ar    1  LGD1       -0.0227
     15  C15       -2.3300    2.9240   -5.0310 C.3     1  LGD1        0.0044
     16  C16        0.0230    3.1680   -4.4080 C.3     1  LGD1        0.0044
     17  C17       -1.6750    4.9520   -3.8190 C.3     1  LGD1        0.0044
     18  C18       -0.6570    2.7740   -1.5080 C.ar    1  LGD1       -0.0029
     19  C19       -2.8800    2.1980   -2.1100 C.ar    1  LGD1       -0.0029
     20  C20       -2.0200    1.6530    0.0630 C.ar    1  LGD1        0.1271
     21  C21       -0.8150    2.2360   -0.2570 C.ar    1  LGD1        0.0199
     22  C22       -3.0480    1.5460   -0.8880 C.ar    1  LGD1        0.0199
     23  C23       -0.8250   -1.1310    0.5010 C.ar    1  LGD1        0.2125
     24  C24       -1.1650   -2.2800   -0.2740 C.ar    1  LGD1        0.2327
     25  C25       -0.2430   -2.7600   -1.1940 C.ar    1  LGD1        0.2651
     26  C26        1.1830   -1.0600   -0.5540 C.ar    1  LGD1        0.2028
     27  C27       -3.1620   -3.2130   -1.1610 C.ar    1  LGD1        0.1793
     28  C28        2.4780   -0.2990   -0.6400 C.ar    1  LGD1        0.1990
     29  C29       -0.3750   -5.1270   -1.7850 C.3     1  LGD1        0.2426
     30  C30       -3.2680   -2.4770   -2.3200 C.ar    1  LGD1        0.1730
     31  C31       -3.9780   -4.3280   -1.0640 C.ar    1  LGD1        0.0406
     32  C32       -4.1070   -2.8440   -3.3820 C.ar    1  LGD1        0.0401
     33  C33       -0.4930   -6.0060   -3.0100 C.3     1  LGD1        0.2292
     34  C34       -4.7580   -4.7850   -2.1190 C.ar    1  LGD1        0.0033
     35  C35       -4.8170   -4.0590   -3.2820 C.ar    1  LGD1        0.0033
     36  C36        3.9930    0.9670   -1.8590 C.ar    1  LGD1        0.1023
     37  C37        4.6300   -0.0210    0.2350 C.ar    1  LGD1        0.1023
     38  C38        4.8980    0.7820   -0.8340 C.ar    1  LGD1        0.0414
     39  C39       -1.8120   -0.9830   -3.6390 C.3     1  LGD1        0.2526
@<TRIPOS>BOND
     1    33     7    1
     2    33    29    1
     3     5    29    1
     4     5    25    1
     5    10    25   ar
     6    10    26   ar
     7    36    11   ar
     8    36    38   ar
     9    11    28   ar
    10    25    24   ar
    11    38    37   ar
    12    34    31   ar
    13    34    35   ar
    14    28    26    1
    15    28    12   ar
    16    26     9   ar
    17    31    27   ar
    18    37    12   ar
    19    24     4    1
    20    24    23   ar
    21     4    27    1
    22    27    30   ar
    23    35    32   ar
    24    15    13    1
    25     9    23   ar
    26    23     8    1
    27    30    32   ar
    28    30     6    1
    29     6    39    1
    30     8     1    1
    31    18    14   ar
    32    18    21   ar
    33    13    14    1
    34    13    17    1
    35    13    16    1
    36    14    19   ar
    37    21    20   ar
    38    20     1    1
    39    20    22   ar
    40    19    22   ar
    41     1     2    2
    42     1     3    2
@<TRIPOS>MOLECULE
11672244
 53 58 0 0 0
SMALL
GASTEIGER

@<TRIPOS>ATOM
      1 O          -0.8419    0.7010   -4.0408 O.3     1  LIG11      -0.4607
      2 O           0.7500   -3.3682   -9.2589 O.2     1  LIG11      -0.2968
      3 O          -2.8348    6.3939   -5.4120 O.co2   1  LIG11      -0.5492
      4 O          -0.9293    7.4059   -4.7030 O.co2   1  LIG11      -0.5492
      5 O           1.0445   -0.6130   -3.9196 O.2     1  LIG11      -0.2456
      6 O          -3.9623   -3.7663    0.3171 O.3     1  LIG11      -0.5067
      7 O          -5.8277   -4.8604   -5.8109 O.2     1  LIG11      -0.2705
      8 O          -5.3242   -5.2070  -10.7799 O.co2   1  LIG11      -0.5452
      9 O          -4.0762   -3.3682  -10.2459 O.co2   1  LIG11      -0.5452
     10 N          -4.1123   -3.3753   -5.2676 N.am    1  LIG11      -0.2815
     11 C          -0.1413    2.5031   -6.6472 C.3     1  LIG11      -0.0160
     12 C          -1.1208    1.3450   -7.0651 C.3     1  LIG11      -0.0256
     13 C          -0.4857    2.9745   -5.1153 C.3     1  LIG11       0.0318
     14 C          -0.7364    0.4707   -8.3489 C.3     1  LIG11      -0.0243
     15 C           0.7732    0.0556   -8.1968 C.3     1  LIG11      -0.0235
     16 C           1.3329    2.0359   -6.7597 C.3     1  LIG11      -0.0461
     17 C          -2.0042    3.2356   -4.9538 C.2     1  LIG11      -0.0596
     18 C          -2.4265    4.0754   -3.7277 C.3     1  LIG11      -0.0080
     19 C           1.6662    1.3020   -8.0552 C.3     1  LIG11      -0.0483
     20 C           0.3295    4.2736   -4.7848 C.3     1  LIG11      -0.0392
     21 C          -2.5801    1.8459   -7.0124 C.3     1  LIG11      -0.0306
     22 C          -1.6165    5.3900   -3.5888 C.3     1  LIG11       0.0167
     23 C           1.3213   -1.0147   -9.1962 C.3     1  LIG11       0.0267
     24 C          -1.5759   -0.8456   -8.3204 C.3     1  LIG11      -0.0404
     25 C          -0.1163    5.0244   -3.5281 C.3     1  LIG11      -0.0408
     26 C          -0.3095    3.7150   -7.6207 C.3     1  LIG11      -0.0584
     27 C          -2.8938    2.7157   -5.8263 C.2     1  LIG11      -0.0835
     28 C          -0.0704    1.9164   -4.0181 C.3     1  LIG11       0.1025
     29 C          -1.0453    1.1950   -9.6797 C.3     1  LIG11      -0.0590
     30 C          -3.9498    4.2829   -3.5219 C.3     1  LIG11      -0.0405
     31 C          -1.9909    6.1185   -2.2737 C.3     1  LIG11      -0.0412
     32 C          -1.1318   -1.9039   -9.3266 C.3     1  LIG11       0.0069
     33 C          -4.3184    5.0471   -2.2269 C.3     1  LIG11      -0.0343
     34 C           0.3453   -2.2032   -9.2265 C.2     1  LIG11       0.1392
     35 C          -3.4953    6.3442   -2.1158 C.3     1  LIG11      -0.0470
     36 C           1.5477   -0.5182  -10.6294 C.3     1  LIG11      -0.0528
     37 C           2.6836   -1.5525   -8.6812 C.3     1  LIG11      -0.0528
     38 C          -1.8093    6.4932   -4.6849 C.2     1  LIG11       0.0485
     39 C          -5.8155    5.4115   -2.2721 C.3     1  LIG11      -0.0598
     40 C          -4.0919    4.1579   -0.9871 C.3     1  LIG11      -0.0598
     41 C          -0.1686   -0.4640   -3.9244 C.2     1  LIG11       0.3320
     42 C          -1.0878   -1.5891   -3.6422 C.2     1  LIG11       0.0231
     43 C          -2.4283   -1.5228   -3.6941 C.2     1  LIG11      -0.0460
     44 C          -3.2567   -2.5924   -3.1084 C.ar    1  LIG11      -0.0001
     45 C          -4.0853   -3.4622   -3.8512 C.ar    1  LIG11       0.0411
     46 C          -3.2219   -2.6933   -1.7002 C.ar    1  LIG11      -0.0113
     47 C          -4.8408   -4.4172   -3.1510 C.ar    1  LIG11      -0.0364
     48 C          -3.9834   -3.6497   -1.0411 C.ar    1  LIG11       0.1175
     49 C          -4.7905   -4.5130   -1.7567 C.ar    1  LIG11      -0.0184
     50 C          -4.9244   -4.0959   -6.1286 C.2     1  LIG11       0.2411
     51 C          -4.5913   -3.8480   -7.5570 C.2     1  LIG11       0.0021
     52 C          -5.1517   -4.5850   -8.5289 C.2     1  LIG11      -0.0344
     53 C          -4.8126   -4.3619   -9.9942 C.2     1  LIG11       0.0647
@<TRIPOS>BOND
     1     1    41    1
     2     1    28    1
     3     2    34    2
     4     3    38   ar
     5     4    38   ar
     6     5    41    2
     7     6    48    1
     8     7    50    2
     9     8    53   ar
    10     9    53   ar
    11    10    45    1
    12    10    50   am
    13    11    16    1
    14    11    12    1
    15    11    26    1
    16    11    13    1
    17    12    14    1
    18    13    20    1
    19    13    17    1
    20    13    28    1
    21    14    15    1
    22    14    24    1
    23    14    29    1
    24    15    19    1
    25    15    23    1
    26    16    19    1
    27    17    18    1
    28    17    27    2
    29    18    30    1
    30    18    22    1
    31    20    25    1
    32    21    27    1
    33    21    12    1
    34    22    31    1
    35    22    25    1
    36    22    38    1
    37    23    34    1
    38    23    37    1
    39    23    36    1
    40    24    32    1
    41    30    33    1
    42    31    35    1
    43    32    34    1
    44    33    35    1
    45    33    40    1
    46    33    39    1
    47    41    42    1
    48    42    43    2
    49    43    44    1
    50    44    46   ar
    51    44    45   ar
    52    45    47   ar
    53    46    48   ar
    54    47    49   ar
    55    48    49   ar
    56    50    51    1
    57    51    52    2
    58    52    53    1
