@<TRIPOS>MOLECULE
BOSENTAN_50CONFORMERS.pdb
 39 42 0 0 0
SMALL
GASTEIGER

@<TRIPOS>ATOM
      1  S1        -1.4490   -0.0940    2.9560 S.O2    1  LGD1        0.0943
      2  O2        -0.6240    1.1470    2.7880 O.2     1  LGD1       -0.1483
      3  O3        -2.8460   -0.0310    3.4150 O.2     1  LGD1       -0.1483
      4  O4        -2.3840   -2.7850   -0.2570 O.3     1  LGD1       -0.4427
      5  O5        -0.5460   -3.7510   -2.1030 O.3     1  LGD1       -0.4552
      6  O6        -0.6450   -4.8040    0.7750 O.3     1  LGD1       -0.4684
      7  O7        -0.8830   -5.5220   -4.4490 O.3     1  LGD1       -0.2162
      8  N8        -1.7980   -0.6580    1.3530 N.pl3   1  LGD1       -0.0737
      9  N9         0.4100   -0.5470    0.4560 N.ar    1  LGD1       -0.2027
     10  N10        0.9550   -2.1210   -1.3620 N.ar    1  LGD1       -0.1866
     11  N11        2.6830    0.7690    0.1300 N.ar    1  LGD1       -0.2224
     12  N12        3.2310   -0.6310   -1.8090 N.ar    1  LGD1       -0.2224
     13  C13        1.2750   -4.7890    5.8630 C.3     1  LGD1        0.0189
     14  C14        0.5530   -3.7060    5.0390 C.ar    1  LGD1       -0.0227
     15  C15        2.5330   -5.3980    5.1060 C.3     1  LGD1        0.0044
     16  C16        0.4010   -5.9280    6.3500 C.3     1  LGD1        0.0044
     17  C17        1.9010   -4.1580    7.1590 C.3     1  LGD1        0.0044
     18  C18       -0.8360   -3.7170    4.7560 C.ar    1  LGD1       -0.0029
     19  C19        1.3090   -2.5880    4.6180 C.ar    1  LGD1       -0.0029
     20  C20       -0.6790   -1.5150    3.7350 C.ar    1  LGD1        0.1271
     21  C21       -1.4510   -2.6580    4.0750 C.ar    1  LGD1        0.0199
     22  C22        0.6770   -1.5660    3.9610 C.ar    1  LGD1        0.0199
     23  C23       -0.8380   -1.1710    0.5840 C.ar    1  LGD1        0.2125
     24  C24       -1.1500   -2.2740   -0.3100 C.ar    1  LGD1        0.2327
     25  C25       -0.2310   -2.7580   -1.2060 C.ar    1  LGD1        0.2651
     26  C26        1.1800   -0.9970   -0.6040 C.ar    1  LGD1        0.2028
     27  C27       -2.7950   -3.6620    0.7790 C.ar    1  LGD1        0.1793
     28  C28        2.5110   -0.2550   -0.7330 C.ar    1  LGD1        0.1990
     29  C29        0.4960   -4.6320   -2.5040 C.3     1  LGD1        0.2426
     30  C30       -1.8980   -4.5650    1.3390 C.ar    1  LGD1        0.1730
     31  C31       -4.1250   -3.6780    1.1760 C.ar    1  LGD1        0.0406
     32  C32       -2.4090   -5.4000    2.3060 C.ar    1  LGD1        0.0401
     33  C33       -0.1650   -5.8480   -3.1830 C.3     1  LGD1        0.2292
     34  C34       -4.6090   -4.5870    2.0420 C.ar    1  LGD1        0.0033
     35  C35       -3.7710   -5.4980    2.6050 C.ar    1  LGD1        0.0033
     36  C36        3.9140    1.3700    0.0300 C.ar    1  LGD1        0.1023
     37  C37        4.4240    0.0080   -1.9080 C.ar    1  LGD1        0.1023
     38  C38        4.7880    0.9720   -0.9580 C.ar    1  LGD1        0.0414
     39  C39        0.4930   -4.7900    1.6810 C.3     1  LGD1        0.2526
@<TRIPOS>BOND
     1    33     7    1
     2    33    29    1
     3     5    29    1
     4     5    25    1
     5    10    25   ar
     6    10    26   ar
     7    36    11   ar
     8    36    38   ar
     9    11    28   ar
    10    25    24   ar
    11    38    37   ar
    12    34    31   ar
    13    34    35   ar
    14    28    26    1
    15    28    12   ar
    16    26     9   ar
    17    31    27   ar
    18    37    12   ar
    19    24     4    1
    20    24    23   ar
    21     4    27    1
    22    27    30   ar
    23    35    32   ar
    24    15    13    1
    25     9    23   ar
    26    23     8    1
    27    30    32   ar
    28    30     6    1
    29     6    39    1
    30     8     1    1
    31    18    14   ar
    32    18    21   ar
    33    13    14    1
    34    13    17    1
    35    13    16    1
    36    14    19   ar
    37    21    20   ar
    38    20     1    1
    39    20    22   ar
    40    19    22   ar
    41     1     2    2
    42     1     3    2
@<TRIPOS>MOLECULE
46174111
 29 32 0 0 0
SMALL
GASTEIGER

@<TRIPOS>ATOM
      1 CL         -5.5253    0.4987    0.6495 Cl      1  LIG11      -0.0762
      2 S          -5.9960   -2.7159    2.7242 S.O2    1  LIG11       0.0758
      3 S          -2.5648   -5.1712    2.1284 S.2     1  LIG11      -0.0918
      4 O           0.1218    0.0056    3.3202 O.3     1  LIG11      -0.4526
      5 O           2.3460   -0.7227    3.9015 O.3     1  LIG11      -0.4526
      6 O          -4.0688   -2.9888    5.0281 O.2     1  LIG11      -0.2911
      7 O          -6.6575   -3.4581    3.7732 O.2     1  LIG11      -0.1499
      8 O          -6.6713   -2.3814    1.4901 O.2     1  LIG11      -0.1499
      9 O          -6.7620    0.3668    4.3329 O.2     1  LIG11      -0.3364
     10 N          -5.2688   -1.3434    3.4021 N.pl3   1  LIG11      -0.1821
     11 N          -7.4358    1.5008    3.9075 N.ar    1  LIG11      -0.0798
     12 C          -0.8013   -3.2786    4.7330 C.ar    1  LIG11      -0.0333
     13 C          -2.0044   -4.1570    5.0420 C.3     1  LIG11       0.0366
     14 C           0.5150   -3.6944    5.0945 C.ar    1  LIG11      -0.0432
     15 C          -4.7067   -3.7776    2.2265 C.ar    1  LIG11       0.1261
     16 C          -3.6190   -4.1376    3.0120 C.ar    1  LIG11       0.0814
     17 C          -0.9739   -2.0104    4.1364 C.ar    1  LIG11      -0.0123
     18 C          -3.3154   -3.7322    4.3887 C.2     1  LIG11       0.1759
     19 C           0.1348   -1.2290    3.8898 C.ar    1  LIG11       0.1665
     20 C           1.3972   -1.6421    4.2197 C.ar    1  LIG11       0.1665
     21 C           1.6191   -2.8596    4.8209 C.ar    1  LIG11      -0.0130
     22 C           0.8151   -4.9974    5.7909 C.3     1  LIG11      -0.0393
     23 C          -4.6674   -4.3645    0.9215 C.ar    1  LIG11      -0.0273
     24 C           1.5286    0.3247    3.3383 C.3     1  LIG11       0.2332
     25 C          -3.5506   -5.1433    0.7391 C.ar    1  LIG11      -0.0217
     26 C          -6.0845   -0.1835    3.2883 C.ar    1  LIG11       0.2554
     27 C          -6.2433    0.6209    2.1826 C.ar    1  LIG11       0.1262
     28 C          -7.1173    1.6457    2.6136 C.ar    1  LIG11       0.1009
     29 C          -7.6484    2.7871    1.8337 C.3     1  LIG11      -0.0176
@<TRIPOS>BOND
     1     1    27    1
     2     2    10    1
     3     2    15    1
     4     2     8    2
     5     2     7    2
     6     3    16   ar
     7     3    25   ar
     8     4    24    1
     9     4    19    1
    10     5    20    1
    11     5    24    1
    12     6    18    2
    13     9    11   ar
    14     9    26   ar
    15    10    26    1
    16    11    28   ar
    17    12    17   ar
    18    12    14   ar
    19    13    18    1
    20    13    12    1
    21    14    21   ar
    22    14    22    1
    23    15    23   ar
    24    15    16   ar
    25    16    18    1
    26    17    19   ar
    27    19    20   ar
    28    20    21   ar
    29    23    25   ar
    30    26    27   ar
    31    27    28   ar
    32    28    29    1
