@<TRIPOS>MOLECULE
BOSENTAN_50CONFORMERS.pdb
 39 42 0 0 0
SMALL
GASTEIGER

@<TRIPOS>ATOM
      1  S1        -1.4540    0.1350    2.8770 S.O2    1  LGD1        0.0943
      2  O2        -0.4470   -0.7320    3.5100 O.2     1  LGD1       -0.1483
      3  O3        -1.1360    1.5320    2.4670 O.2     1  LGD1       -0.1483
      4  O4        -2.4110   -2.7360   -0.2730 O.3     1  LGD1       -0.4427
      5  O5        -0.5950   -3.8040   -2.0130 O.3     1  LGD1       -0.4552
      6  O6        -4.9930   -2.6790    0.8890 O.3     1  LGD1       -0.4684
      7  O7        -0.8270   -6.9230   -2.0170 O.3     1  LGD1       -0.2162
      8  N8        -1.8590   -0.6640    1.3890 N.pl3   1  LGD1       -0.0737
      9  N9         0.4300   -0.6670    0.4910 N.ar    1  LGD1       -0.2027
     10  N10        0.9940   -2.0320   -1.4390 N.ar    1  LGD1       -0.1866
     11  N11        2.7460    0.3150   -1.9570 N.ar    1  LGD1       -0.2224
     12  N12        3.2800   -0.2760    0.3910 N.ar    1  LGD1       -0.2224
     13  C13       -6.6430    0.0540    6.2240 C.3     1  LGD1        0.0189
     14  C14       -5.3760    0.0310    5.4090 C.ar    1  LGD1       -0.0227
     15  C15       -7.0060   -1.3190    6.8340 C.3     1  LGD1        0.0044
     16  C16       -7.8140    0.5500    5.3550 C.3     1  LGD1        0.0044
     17  C17       -6.5440    1.0780    7.3190 C.3     1  LGD1        0.0044
     18  C18       -4.9740    1.1330    4.6920 C.ar    1  LGD1       -0.0029
     19  C19       -4.5800   -1.1010    5.2480 C.ar    1  LGD1       -0.0029
     20  C20       -3.0040    0.0570    3.8580 C.ar    1  LGD1        0.1271
     21  C21       -3.7460    1.2330    4.0600 C.ar    1  LGD1        0.0199
     22  C22       -3.4560   -1.1520    4.3510 C.ar    1  LGD1        0.0199
     23  C23       -0.8670   -1.1600    0.5400 C.ar    1  LGD1        0.2125
     24  C24       -1.1210   -2.1950   -0.3360 C.ar    1  LGD1        0.2327
     25  C25       -0.1810   -2.7470   -1.2100 C.ar    1  LGD1        0.2651
     26  C26        1.1810   -1.0080   -0.6150 C.ar    1  LGD1        0.2028
     27  C27       -3.4650   -2.3120   -1.0420 C.ar    1  LGD1        0.1793
     28  C28        2.5460   -0.3110   -0.7600 C.ar    1  LGD1        0.1990
     29  C29        0.3230   -4.8710   -2.0790 C.3     1  LGD1        0.2426
     30  C30       -4.7730   -2.3660   -0.4830 C.ar    1  LGD1        0.1730
     31  C31       -3.2360   -1.6370   -2.2440 C.ar    1  LGD1        0.0406
     32  C32       -5.8020   -1.8680   -1.3660 C.ar    1  LGD1        0.0401
     33  C33       -0.0890   -6.1170   -2.8760 C.3     1  LGD1        0.2292
     34  C34       -4.2080   -1.0020   -3.0290 C.ar    1  LGD1        0.0033
     35  C35       -5.4860   -1.2960   -2.6440 C.ar    1  LGD1        0.0033
     36  C36        3.9100    1.0220   -2.0730 C.ar    1  LGD1        0.1023
     37  C37        4.5070    0.3110    0.2100 C.ar    1  LGD1        0.1023
     38  C38        4.7710    0.9960   -0.9790 C.ar    1  LGD1        0.0414
     39  C39       -5.6270   -1.6200    1.6780 C.3     1  LGD1        0.2526
@<TRIPOS>BOND
     1    33     7    1
     2    33    29    1
     3     5    29    1
     4     5    25    1
     5    10    25   ar
     6    10    26   ar
     7    36    11   ar
     8    36    38   ar
     9    11    28   ar
    10    25    24   ar
    11    38    37   ar
    12    34    31   ar
    13    34    35   ar
    14    28    26    1
    15    28    12   ar
    16    26     9   ar
    17    31    27   ar
    18    37    12   ar
    19    24     4    1
    20    24    23   ar
    21     4    27    1
    22    27    30   ar
    23    35    32   ar
    24    15    13    1
    25     9    23   ar
    26    23     8    1
    27    30    32   ar
    28    30     6    1
    29     6    39    1
    30     8     1    1
    31    18    14   ar
    32    18    21   ar
    33    13    14    1
    34    13    17    1
    35    13    16    1
    36    14    19   ar
    37    21    20   ar
    38    20     1    1
    39    20    22   ar
    40    19    22   ar
    41     1     2    2
    42     1     3    2
@<TRIPOS>MOLECULE
9939443
 43 47 0 0 0
SMALL
GASTEIGER

@<TRIPOS>ATOM
      1 S          -1.0442    0.1364    2.9709 S.O2    1  LIG11       0.0908
      2 O          -2.6394   -1.6695    0.3483 O.3     1  LIG11      -0.4435
      3 O          -0.5396   -1.2247    2.9948 O.2     1  LIG11      -0.1484
      4 O          -0.2999    1.2057    3.6101 O.2     1  LIG11      -0.1484
      5 O          -0.9726   -3.6275   -0.7074 O.3     1  LIG11      -0.4715
      6 O          -5.1531   -1.1094    0.9943 O.3     1  LIG11      -0.4914
      7 O           0.3038   -7.0353   -0.5919 O.3     1  LIG11      -0.3917
      8 N          -1.3100    0.6321    1.3566 N.pl3   1  LIG11      -0.1950
      9 N          -3.3092    1.3167    3.7179 N.ar    1  LIG11      -0.2351
     10 N           0.5676    0.0578    0.1641 N.ar    1  LIG11      -0.2073
     11 N           0.8130   -2.1053   -0.7973 N.ar    1  LIG11      -0.1899
     12 N           5.3655   -0.0048   -1.4808 N.ar    1  LIG11      -0.2552
     13 N           6.7746   -1.7516   -3.2946 N.ar    1  LIG11      -0.5621
     14 N           5.0840   -3.2510   -3.2162 N.ar    1  LIG11      -0.1535
     15 N           6.9982   -2.8655   -4.0002 N.ar    1  LIG11      -0.3597
     16 N           6.0243   -3.7811   -3.9842 N.ar    1  LIG11      -0.0878
     17 C          -6.4983    0.3690    5.5550 C.3     1  LIG11      -0.0201
     18 C          -5.1385    0.2123    4.9001 C.ar    1  LIG11      -0.0266
     19 C          -6.3907    1.1981    6.8397 C.3     1  LIG11      -0.0586
     20 C          -7.2287   -0.9448    5.8586 C.3     1  LIG11      -0.0586
     21 C          -2.6884    0.1098    3.6759 C.ar    1  LIG11       0.1969
     22 C          -4.4533   -1.0067    4.8110 C.ar    1  LIG11      -0.0535
     23 C          -4.5124    1.3303    4.3321 C.ar    1  LIG11       0.0332
     24 C          -3.2079   -1.0666    4.1912 C.ar    1  LIG11      -0.0160
     25 C          -0.7105   -0.2600    0.4279 C.ar    1  LIG11       0.1882
     26 C          -1.3296   -1.4317    0.0529 C.ar    1  LIG11       0.2307
     27 C          -0.4702   -2.3634   -0.4792 C.ar    1  LIG11       0.2641
     28 C           1.2834   -0.8882   -0.4694 C.ar    1  LIG11       0.1659
     29 C           2.6862   -0.5864   -0.8068 C.ar    1  LIG11       0.0227
     30 C          -3.5654   -1.6562   -0.6848 C.ar    1  LIG11       0.1702
     31 C           3.4441   -1.4493   -1.6174 C.ar    1  LIG11      -0.0252
     32 C           3.3236    0.5706   -0.3391 C.ar    1  LIG11      -0.0328
     33 C           0.0248   -4.6408   -0.8276 C.3     1  LIG11       0.1143
     34 C          -4.9022   -1.4095   -0.3226 C.ar    1  LIG11       0.1621
     35 C           4.7631   -1.1326   -1.9363 C.ar    1  LIG11       0.0708
     36 C          -3.2664   -1.9147   -2.0306 C.ar    1  LIG11      -0.0157
     37 C           4.6401    0.8122   -0.6935 C.ar    1  LIG11       0.0289
     38 C          -0.6231   -5.9685   -0.4515 C.3     1  LIG11       0.0783
     39 C          -5.9163   -1.4982   -1.2870 C.ar    1  LIG11      -0.0163
     40 C          -4.2820   -1.9786   -2.9886 C.ar    1  LIG11      -0.0581
     41 C          -5.6062   -1.7839   -2.6156 C.ar    1  LIG11      -0.0581
     42 C           5.5494   -2.0189   -2.7991 C.ar    1  LIG11       0.0207
     43 C          -6.2556   -0.2299    1.2001 C.3     1  LIG11       0.0790
@<TRIPOS>BOND
     1     1    21    1
     2     1     8    1
     3     1     4    2
     4     1     3    2
     5     2    26    1
     6     2    30    1
     7     5    27    1
     8     5    33    1
     9     6    34    1
    10     6    43    1
    11     7    38    1
    12     8    25    1
    13     9    23   ar
    14     9    21   ar
    15    10    25   ar
    16    10    28   ar
    17    11    27   ar
    18    11    28   ar
    19    12    37   ar
    20    12    35   ar
    21    13    15   ar
    22    13    42   ar
    23    14    42   ar
    24    14    16   ar
    25    15    16   ar
    26    17    18    1
    27    17    20    1
    28    17    19    1
    29    18    23   ar
    30    18    22   ar
    31    21    24   ar
    32    22    24   ar
    33    25    26   ar
    34    26    27   ar
    35    28    29    1
    36    29    31   ar
    37    29    32   ar
    38    30    36   ar
    39    30    34   ar
    40    31    35   ar
    41    32    37   ar
    42    33    38    1
    43    34    39   ar
    44    35    42    1
    45    36    40   ar
    46    39    41   ar
    47    40    41   ar
