@<TRIPOS>MOLECULE
BOSENTAN_50CONFORMERS.pdb
 39 42 0 0 0
SMALL
GASTEIGER

@<TRIPOS>ATOM
      1  S1        -2.3120   -1.6410    2.7370 S.O2    1  LGD1        0.0943
      2  O2        -1.5620   -2.9080    2.6480 O.2     1  LGD1       -0.1483
      3  O3        -2.0480   -0.8660    3.9410 O.2     1  LGD1       -0.1483
      4  O4        -2.3080   -2.9470   -0.1270 O.3     1  LGD1       -0.4427
      5  O5        -0.4840   -3.8300   -2.0350 O.3     1  LGD1       -0.4552
      6  O6        -4.3250   -4.9400   -0.1280 O.3     1  LGD1       -0.4684
      7  O7        -2.1120   -5.6410   -3.6980 O.3     1  LGD1       -0.2162
      8  N8        -1.7460   -0.6930    1.5320 N.pl3   1  LGD1       -0.0737
      9  N9         0.3320   -0.5290    0.3740 N.ar    1  LGD1       -0.2027
     10  N10        0.9930   -2.1350   -1.3510 N.ar    1  LGD1       -0.1866
     11  N11        2.7030    0.9770   -0.1940 N.ar    1  LGD1       -0.2224
     12  N12        3.6730   -1.0500   -1.0970 N.ar    1  LGD1       -0.2224
     13  C13       -8.3210   -1.4920    1.9850 C.3     1  LGD1        0.0189
     14  C14       -6.7870   -1.4720    2.0040 C.ar    1  LGD1       -0.0227
     15  C15       -8.9170   -2.6520    2.8130 C.3     1  LGD1        0.0044
     16  C16       -8.8250   -1.7270    0.5110 C.3     1  LGD1        0.0044
     17  C17       -8.9520   -0.1210    2.4900 C.3     1  LGD1        0.0044
     18  C18       -6.0720   -0.2770    2.1190 C.ar    1  LGD1       -0.0029
     19  C19       -6.0790   -2.7020    2.0660 C.ar    1  LGD1       -0.0029
     20  C20       -4.0760   -1.5540    2.4260 C.ar    1  LGD1        0.1271
     21  C21       -4.7120   -0.2910    2.3860 C.ar    1  LGD1        0.0199
     22  C22       -4.7160   -2.7480    2.2750 C.ar    1  LGD1        0.0199
     23  C23       -0.8670   -1.1610    0.4830 C.ar    1  LGD1        0.2125
     24  C24       -1.1980   -2.1910   -0.3690 C.ar    1  LGD1        0.2327
     25  C25       -0.2770   -2.6830   -1.3030 C.ar    1  LGD1        0.2651
     26  C26        1.2290   -1.0550   -0.5230 C.ar    1  LGD1        0.2028
     27  C27       -3.6030   -2.7210   -0.7440 C.ar    1  LGD1        0.1793
     28  C28        2.6120   -0.3340   -0.6040 C.ar    1  LGD1        0.1990
     29  C29       -0.8330   -3.6410   -3.4550 C.3     1  LGD1        0.2426
     30  C30       -4.5790   -3.7080   -0.7380 C.ar    1  LGD1        0.1730
     31  C31       -3.8780   -1.5100   -1.3650 C.ar    1  LGD1        0.0406
     32  C32       -5.8770   -3.4180   -1.2680 C.ar    1  LGD1        0.0401
     33  C33       -1.0170   -4.9460   -4.2160 C.3     1  LGD1        0.2292
     34  C34       -5.1320   -1.2460   -1.8500 C.ar    1  LGD1        0.0033
     35  C35       -6.1880   -2.1660   -1.7110 C.ar    1  LGD1        0.0033
     36  C36        3.8760    1.6480   -0.2450 C.ar    1  LGD1        0.1023
     37  C37        4.8630   -0.3620   -1.2110 C.ar    1  LGD1        0.1023
     38  C38        4.9200    0.9440   -0.7790 C.ar    1  LGD1        0.0414
     39  C39       -4.3840   -6.1090   -0.9810 C.3     1  LGD1        0.2526
@<TRIPOS>BOND
     1    33     7    1
     2    33    29    1
     3     5    29    1
     4     5    25    1
     5    10    25   ar
     6    10    26   ar
     7    36    11   ar
     8    36    38   ar
     9    11    28   ar
    10    25    24   ar
    11    38    37   ar
    12    34    31   ar
    13    34    35   ar
    14    28    26    1
    15    28    12   ar
    16    26     9   ar
    17    31    27   ar
    18    37    12   ar
    19    24     4    1
    20    24    23   ar
    21     4    27    1
    22    27    30   ar
    23    35    32   ar
    24    15    13    1
    25     9    23   ar
    26    23     8    1
    27    30    32   ar
    28    30     6    1
    29     6    39    1
    30     8     1    1
    31    18    14   ar
    32    18    21   ar
    33    13    14    1
    34    13    17    1
    35    13    16    1
    36    14    19   ar
    37    21    20   ar
    38    20     1    1
    39    20    22   ar
    40    19    22   ar
    41     1     2    2
    42     1     3    2
@<TRIPOS>MOLECULE
123882
 66 71 0 0 0
SMALL
GASTEIGER

@<TRIPOS>ATOM
      1 S          -5.8329   -2.8462    2.5752 S.2     3  UNK33      -0.0993
      2 O         -14.7202   -7.8597   -0.6715 O.2     1  UNK11      -0.2755
      3 O         -11.1092    0.1850   -3.2231 O.2     4  LEU44      -0.2738
      4 O         -10.1222   -7.3275    1.5556 O.2     1  UNK11      -0.2737
      5 O         -10.4333   -3.5194   -1.5475 O.2     5  TRP55      -0.2738
      6 O         -11.0487   -6.7764   -2.2332 O.2     6  ASP66      -0.2738
      7 O          -7.9523    0.3405    0.2187 O.2     3  UNK33      -0.2734
      8 O         -10.9180   -2.6342    1.5595 O.2     2  ASP22      -0.2737
      9 OD1       -13.3607   -3.6063   -5.2218 O.co2   6  ASP66      -0.5497
     10 OD2       -15.3912   -4.1947   -4.3449 O.co2   6  ASP66      -0.5497
     11 OD1        -8.5416   -4.2644    4.8984 O.co2   2  ASP22      -0.5497
     12 OD2        -9.9057   -2.4481    5.0792 O.co2   2  ASP22      -0.5497
     13 N         -15.2647   -8.9630    1.2455 N.am    1  UNK11      -0.2984
     14 N         -15.9225  -11.6497    2.0941 N.pl3   1  UNK11      -0.3269
     15 N         -12.5239   -5.9918   -0.6552 N.am    1  UNK11      -0.3020
     16 N          -9.4739   -1.2713   -2.5480 N.am    5  TRP55      -0.3022
     17 N          -9.9129   -0.7685    0.1013 N.am    4  LEU44      -0.3022
     18 N         -11.3577   -4.1918   -3.5328 N.am    6  ASP66      -0.3021
     19 N         -11.2374   -5.3355    1.8248 N.am    2  ASP22      -0.3021
     20 N          -8.6624   -2.9340    1.8224 N.am    3  UNK33      -0.2984
     21 NE1        -6.4002   -4.9077   -1.9067 N.ar    5  TRP55      -0.3604
     22 C         -14.9603   -9.4203    2.6098 C.3     1  UNK11       0.0304
     23 C         -16.3443   -9.6853    0.5628 C.3     1  UNK11       0.0304
     24 C         -15.9058  -10.5430    3.0777 C.3     1  UNK11       0.0280
     25 C         -16.1465  -11.2072    0.6833 C.3     1  UNK11       0.0280
     26 C         -14.4742   -8.0935    0.5110 C.2     1  UNK11       0.2179
     27 C         -13.3656   -7.3647    1.2434 C.3     1  UNK11       0.0510
     28 C         -12.1911   -7.0215    0.3210 C.3     1  UNK11       0.1076
     29 CA        -10.5489    0.1470   -0.8491 C.3     4  LEU44       0.0997
     30 CB        -11.9961    0.5084   -0.4290 C.3     4  LEU44      -0.0236
     31 CA         -9.7377   -2.3153   -3.5397 C.3     5  TRP55       0.1034
     32 C         -15.0990  -12.7733    2.2530 C.ar    1  UNK11       0.0298
     33 CG        -13.0162   -0.6401   -0.2333 C.3     4  LEU44      -0.0446
     34 CB         -8.4593   -2.8649   -4.1778 C.3     5  TRP55       0.0013
     35 C         -10.4470   -0.3170   -2.3178 C.2     4  LEU44       0.2340
     36 CA        -12.4566   -4.8601   -2.8338 C.3     6  ASP66       0.1045
     37 C         -11.0292   -6.5637    1.2284 C.2     1  UNK11       0.2344
     38 CG         -7.4653   -3.4497   -3.2147 C.ar    5  TRP55      -0.0201
     39 C         -10.5223   -3.4003   -2.7737 C.2     5  TRP55       0.2343
     40 C         -11.9157   -5.9683   -1.9017 C.2     6  ASP66       0.2343
     41 CA        -10.2133   -4.6706    2.6415 C.3     2  ASP22       0.1045
     42 CD2       -13.4018   -1.3470   -1.5277 C.3     4  LEU44      -0.0626
     43 CD1       -14.2939   -0.1099    0.4283 C.3     4  LEU44      -0.0626
     44 C          -8.2609   -1.5248    1.8467 C.3     3  UNK33       0.1311
     45 C         -15.1227  -13.8205    1.3104 C.ar    1  UNK11      -0.0407
     46 C         -14.2341  -12.9508    3.3443 C.ar    1  UNK11      -0.0407
     47 CD2        -6.4099   -2.7681   -2.5243 C.ar    5  TRP55       0.0029
     48 C          -8.6386   -0.6086    0.6088 C.2     3  UNK33       0.2390
     49 CB        -13.4790   -5.4625   -3.7878 C.3     6  ASP66       0.0138
     50 CD1        -7.4158   -4.7699   -2.8112 C.ar    5  TRP55       0.0060
     51 CE2        -5.7407   -3.7124   -1.7451 C.ar    5  TRP55       0.0467
     52 C          -9.9718   -3.3165    1.9517 C.2     2  ASP22       0.2345
     53 CB        -10.7332   -4.4000    4.0492 C.3     2  ASP22       0.0138
     54 C         -14.3019  -14.9494    1.4219 C.ar    1  UNK11      -0.0600
     55 C         -13.4159  -14.0828    3.4707 C.ar    1  UNK11      -0.0600
     56 C          -6.7496   -1.4458    2.1382 C.ar    3  UNK33       0.0189
     57 CE3        -5.9708   -1.4282   -2.4728 C.ar    5  TRP55      -0.0523
     58 C         -13.4439  -15.0797    2.5043 C.ar    1  UNK11      -0.0616
     59 CZ2        -4.6337   -3.3944   -0.9495 C.ar    5  TRP55      -0.0378
     60 CG        -14.1424   -4.3099   -4.5214 C.2     6  ASP66       0.0440
     61 CZ3        -4.8770   -1.0888   -1.6672 C.ar    5  TRP55      -0.0611
     62 C          -5.9370   -0.3215    2.1971 C.ar    3  UNK33      -0.0493
     63 CH2        -4.2113   -2.0630   -0.9292 C.ar    5  TRP55      -0.0598
     64 CG         -9.6246   -3.6356    4.7604 C.2     2  ASP22       0.0440
     65 C          -4.5862   -0.6132    2.5458 C.ar    3  UNK33      -0.0544
     66 C          -4.3991   -1.9518    2.7885 C.ar    3  UNK33      -0.0240
@<TRIPOS>BOND
     1     1    56   ar
     2     1    66   ar
     3     2    26    2
     4     3    35    2
     5     4    37    2
     6     5    39    2
     7     6    40    2
     8     7    48    2
     9     8    52    2
    10     9    60   ar
    11    10    60   ar
    12    11    64   ar
    13    12    64   ar
    14    13    22    1
    15    13    23    1
    16    14    24    1
    17    14    25    1
    18    14    32    1
    19    15    28    1
    20    15    40   am
    21    16    35   am
    22    16    31    1
    23    17    48   am
    24    17    29    1
    25    18    39   am
    26    18    36    1
    27    19    37   am
    28    19    41    1
    29    20    52   am
    30    20    44    1
    31    21    50   ar
    32    21    51   ar
    33    22    24    1
    34    23    25    1
    35    26    27    1
    36    26    13   am
    37    28    37    1
    38    28    27    1
    39    29    35    1
    40    29    30    1
    41    30    33    1
    42    31    39    1
    43    31    34    1
    44    32    45   ar
    45    32    46   ar
    46    33    43    1
    47    33    42    1
    48    34    38    1
    49    36    40    1
    50    36    49    1
    51    38    47   ar
    52    38    50   ar
    53    41    52    1
    54    41    53    1
    55    44    48    1
    56    44    56    1
    57    45    54   ar
    58    46    55   ar
    59    47    57   ar
    60    47    51   ar
    61    49    60    1
    62    51    59   ar
    63    53    64    1
    64    54    58   ar
    65    55    58   ar
    66    56    62   ar
    67    57    61   ar
    68    59    63   ar
    69    61    63   ar
    70    62    65   ar
    71    65    66   ar
