@<TRIPOS>MOLECULE
9939443
 70 74 0 0 0
SMALL
GASTEIGER

@<TRIPOS>ATOM
      1 S          -9.7382    2.5340   -5.2394 S.O2    1  LIG11       0.0908
      2 O          -7.6041    5.3179   -4.3942 O.3     1  LIG11      -0.4435
      3 O         -10.2115    3.4822   -6.2267 O.2     1  LIG11      -0.1484
      4 O          -9.9728    1.1131   -5.4400 O.2     1  LIG11      -0.1484
      5 O          -6.6470    5.7204   -1.6551 O.3     1  LIG11      -0.4715
      6 O          -4.8101    5.4273   -4.4362 O.3     1  LIG11      -0.4914
      7 O          -4.0947    7.0423    0.6110 O.3     1  LIG11      -0.3917
      8 N          -8.0415    2.6707   -5.1431 N.pl3   1  LIG11      -0.1950
      9 N         -10.5256    4.2949   -3.4070 N.ar    1  LIG11      -0.2351
     10 N          -7.3997    1.9517   -3.0785 N.ar    1  LIG11      -0.2073
     11 N          -6.7896    3.4238   -1.3231 N.ar    1  LIG11      -0.1899
     12 N          -7.2308   -1.0875    0.9394 N.ar    1  LIG11      -0.2552
     13 N          -7.1651    1.5763    3.4652 N.ar    1  LIG11      -0.5621
     14 N          -7.5625   -0.6375    3.7163 N.ar    1  LIG11      -0.1535
     15 N          -7.3373    1.1884    4.7374 N.ar    1  LIG11      -0.3597
     16 N          -7.5891   -0.1081    4.9312 N.ar    1  LIG11      -0.0878
     17 C         -11.6828    4.2147    0.2194 C.3     1  LIG11      -0.0201
     18 C         -11.2473    3.7542   -1.1558 C.ar    1  LIG11      -0.0266
     19 C         -13.1067    4.7726    0.1854 C.3     1  LIG11      -0.0586
     20 C         -10.7110    5.2363    0.8191 C.3     1  LIG11      -0.0586
     21 C         -10.4152    2.9609   -3.6338 C.ar    1  LIG11       0.1969
     22 C         -11.1333    2.3875   -1.4465 C.ar    1  LIG11      -0.0535
     23 C         -10.9529    4.6547   -2.1797 C.ar    1  LIG11       0.0332
     24 C         -10.7197    1.9743   -2.7097 C.ar    1  LIG11      -0.0160
     25 C          -7.5324    3.0305   -3.8655 C.ar    1  LIG11       0.1882
     26 C          -7.3155    4.3418   -3.4865 C.ar    1  LIG11       0.2307
     27 C          -6.8988    4.4692   -2.1786 C.ar    1  LIG11       0.2641
     28 C          -7.0517    2.2023   -1.8091 C.ar    1  LIG11       0.1659
     29 C          -7.0708    1.0729   -0.8656 C.ar    1  LIG11       0.0227
     30 C          -6.9133    6.5055   -4.3954 C.ar    1  LIG11       0.1702
     31 C          -7.1160    1.2813    0.5227 C.ar    1  LIG11      -0.0252
     32 C          -7.0923   -0.2547   -1.3145 C.ar    1  LIG11      -0.0328
     33 C          -5.6721    5.6768   -0.6074 C.3     1  LIG11       0.1143
     34 C          -5.5142    6.6022   -4.4621 C.ar    1  LIG11       0.1621
     35 C          -7.2046    0.1926    1.3873 C.ar    1  LIG11       0.0708
     36 C          -7.7113    7.6527   -4.4759 C.ar    1  LIG11      -0.0157
     37 C          -7.1668   -1.2828   -0.3913 C.ar    1  LIG11       0.0289
     38 C          -5.0701    7.0646   -0.4257 C.3     1  LIG11       0.0783
     39 C          -4.9347    7.8736   -4.5505 C.ar    1  LIG11      -0.0163
     40 C          -7.1233    8.9103   -4.5782 C.ar    1  LIG11      -0.0581
     41 C          -5.7358    9.0202   -4.6088 C.ar    1  LIG11      -0.0581
     42 C          -7.2993    0.3899    2.8348 C.ar    1  LIG11       0.0207
     43 C          -3.4210    5.4950   -4.7274 C.3     1  LIG11       0.0790
     44 H          -3.7264    7.9403    0.6745 H       1  LIG11       0.2095
     45 H          -7.6897    1.7386   -5.3601 H       1  LIG11       0.1754
     46 H          -7.2830    1.8404    5.5148 H       1  LIG11       0.1651
     47 H         -11.6833    3.3464    0.8917 H       1  LIG11       0.0344
     48 H         -13.1803    5.6628   -0.4491 H       1  LIG11       0.0235
     49 H         -13.8099    4.0277   -0.2039 H       1  LIG11       0.0235
     50 H         -13.4369    5.0504    1.1922 H       1  LIG11       0.0235
     51 H         -10.7091    6.1794    0.2616 H       1  LIG11       0.0235
     52 H         -10.9873    5.4672    1.8535 H       1  LIG11       0.0235
     53 H          -9.6863    4.8480    0.8230 H       1  LIG11       0.0235
     54 H         -11.3557    1.6396   -0.6880 H       1  LIG11       0.0622
     55 H         -11.0465    5.7283   -2.0367 H       1  LIG11       0.0833
     56 H         -10.6043    0.9214   -2.9430 H       1  LIG11       0.0653
     57 H          -7.1082    2.2917    0.9258 H       1  LIG11       0.0646
     58 H          -7.0573   -0.4926   -2.3740 H       1  LIG11       0.0640
     59 H          -6.1440    5.3552    0.3297 H       1  LIG11       0.0720
     60 H          -4.8560    4.9776   -0.8387 H       1  LIG11       0.0720
     61 H          -8.7948    7.5563   -4.4744 H       1  LIG11       0.0655
     62 H          -7.1850   -2.3219   -0.7093 H       1  LIG11       0.0830
     63 H          -5.8470    7.7922   -0.1708 H       1  LIG11       0.0591
     64 H          -4.5910    7.3960   -1.3526 H       1  LIG11       0.0591
     65 H          -3.8592    8.0098   -4.5882 H       1  LIG11       0.0655
     66 H          -7.7464    9.7982   -4.6489 H       1  LIG11       0.0619
     67 H          -5.2736   10.0007   -4.6958 H       1  LIG11       0.0619
     68 H          -3.0354    4.4713   -4.7481 H       1  LIG11       0.0660
     69 H          -3.2446    5.9386   -5.7128 H       1  LIG11       0.0660
     70 H          -2.8807    6.0370   -3.9445 H       1  LIG11       0.0660
@<TRIPOS>BOND
     1     1    21    1
     2     1     8    1
     3     1     4    2
     4     1     3    2
     5     2    26    1
     6     2    30    1
     7     5    27    1
     8     5    33    1
     9     6    34    1
    10     6    43    1
    11     7    38    1
    12     8    25    1
    13     9    23   ar
    14     9    21   ar
    15    10    25   ar
    16    10    28   ar
    17    11    27   ar
    18    11    28   ar
    19    12    37   ar
    20    12    35   ar
    21    13    15   ar
    22    13    42   ar
    23    14    42   ar
    24    14    16   ar
    25    15    16   ar
    26    17    18    1
    27    17    20    1
    28    17    19    1
    29    18    23   ar
    30    18    22   ar
    31    21    24   ar
    32    22    24   ar
    33    25    26   ar
    34    26    27   ar
    35    28    29    1
    36    29    31   ar
    37    29    32   ar
    38    30    36   ar
    39    30    34   ar
    40    31    35   ar
    41    32    37   ar
    42    33    38    1
    43    34    39   ar
    44    35    42    1
    45    36    40   ar
    46    39    41   ar
    47    40    41   ar
    48     7    44    1
    49     8    45    1
    50    15    46    1
    51    17    47    1
    52    19    48    1
    53    19    49    1
    54    19    50    1
    55    20    51    1
    56    20    52    1
    57    20    53    1
    58    22    54    1
    59    23    55    1
    60    24    56    1
    61    31    57    1
    62    32    58    1
    63    33    59    1
    64    33    60    1
    65    36    61    1
    66    37    62    1
    67    38    63    1
    68    38    64    1
    69    39    65    1
    70    40    66    1
    71    41    67    1
    72    43    68    1
    73    43    69    1
    74    43    70    1
@<TRIPOS>MOLECULE
../1EDN/3STEPMIN_17-21.pdb
 47 48 0 0 0
SMALL
GASTEIGER

@<TRIPOS>ATOM
      1  N         -5.4290    0.8830   -1.1740 N.3    17  LEU17      -0.1231
      2  CA        -6.8230    0.6710   -0.7980 C.3    17  LEU17       0.1693
      3  CB        -6.9230   -0.4370    0.2770 C.3    17  LEU17       0.0284
      4  CG        -6.4950   -1.8450   -0.1910 C.3    17  LEU17       0.0019
      5  CD1       -6.5150   -2.8060    0.9980 C.3    17  LEU17       0.0001
      6  CD2       -7.4310   -2.4140   -1.2600 C.3    17  LEU17       0.0001
      7  C         -7.3990    2.0370   -0.3760 C.2    17  LEU17       0.2592
      8  O         -7.4670    2.9330   -1.2040 O.2    17  LEU17      -0.2718
      9  N         -7.7380    2.2560    0.8970 N.am   18  ASP18      -0.1960
     10  CA        -8.5130    3.4280    1.3730 C.3    18  ASP18       0.1840
     11  CB        -9.0510    3.1310    2.7840 C.3    18  ASP18       0.1450
     12  CG       -10.5470    3.4340    2.8500 C.2    18  ASP18       0.3671
     13  OD1      -11.3300    2.4930    2.5610 O.co2  18  ASP18      -0.2456
     14  OD2      -10.9050    4.5930    3.1470 O.co2  18  ASP18      -0.2456
     15  C         -7.8270    4.8120    1.2910 C.2    18  ASP18       0.2622
     16  O         -8.3890    5.8210    1.7350 O.2    18  ASP18      -0.2715
     17  N         -6.6250    4.8510    0.7010 N.am   19  ILE19      -0.1963
     18  CA        -5.9180    6.0210    0.1680 C.3    19  ILE19       0.1727
     19  CB        -4.3960    5.7260    0.0740 C.3    19  ILE19       0.0290
     20  CG2       -3.6150    6.9530   -0.4300 C.3    19  ILE19       0.0023
     21  CG1       -3.7730    5.2100    1.3920 C.3    19  ILE19       0.0022
     22  CD1       -3.8620    6.1700    2.5820 C.3    19  ILE19       0.0001
     23  C         -6.4970    6.4050   -1.2110 C.2    19  ILE19       0.2616
     24  O         -7.0070    7.5130   -1.3720 O.2    19  ILE19      -0.2715
     25  N         -6.3950    5.4980   -2.1940 N.am   20  ILE20      -0.1963
     26  CA        -6.9990    5.5490   -3.5400 C.3    20  ILE20       0.1727
     27  CB        -6.0900    6.2460   -4.5940 C.3    20  ILE20       0.0290
     28  CG2       -6.7980    6.2490   -5.9680 C.3    20  ILE20       0.0023
     29  CG1       -5.7140    7.6970   -4.2070 C.3    20  ILE20       0.0022
     30  CD1       -4.7810    8.4150   -5.1910 C.3    20  ILE20       0.0001
     31  C         -7.3180    4.1070   -3.9880 C.2    20  ILE20       0.2617
     32  O         -6.4020    3.3070   -4.2100 O.2    20  ILE20      -0.2715
     33  N         -8.6100    3.8210   -4.1620 N.am   21  TRP21      -0.1938
     34  CA        -9.2240    2.5950   -4.7020 C.3    21  TRP21       0.2021
     35  CB        -9.7020    1.6830   -3.5450 C.3    21  TRP21       0.0612
     36  CG       -10.4970    2.2370   -2.3850 C.ar   21  TRP21       0.0007
     37  CD1      -10.6860    1.5470   -1.2340 C.ar   21  TRP21       0.0946
     38  NE1      -11.3350    2.3340   -0.3040 N.ar   21  TRP21      -0.2442
     39  CE2      -11.5720    3.5950   -0.7990 C.ar   21  TRP21       0.0810
     40  CZ2      -12.0950    4.7480   -0.2000 C.ar   21  TRP21       0.0191
     41  CH2      -12.2340    5.9130   -0.9670 C.ar   21  TRP21       0.0015
     42  CZ3      -11.8800    5.8920   -2.3260 C.ar   21  TRP21       0.0001
     43  CE3      -11.3480    4.7280   -2.9100 C.ar   21  TRP21       0.0012
     44  CD2      -11.1270    3.5500   -2.1550 C.ar   21  TRP21       0.0152
     45  C        -10.3230    2.8760   -5.7330 C.2    21  TRP21       0.3845
     46  O        -11.0800    1.9620   -6.0950 O.co2  21  TRP21      -0.2437
     47  OXT      -10.4270    4.0430   -6.2080 O.co2  21  TRP21      -0.2437
@<TRIPOS>BOND
     1    47    45   ar
     2    46    45   ar
     3    28    27    1
     4    45    34    1
     5    30    29    1
     6    34    33    1
     7    34    35    1
     8    27    29    1
     9    27    26    1
    10    32    31    2
    11    33    31   am
    12    31    26    1
    13    35    36    1
    14    26    25    1
    15    43    42   ar
    16    43    44   ar
    17    36    44   ar
    18    36    37   ar
    19    42    41   ar
    20    25    23   am
    21    44    39   ar
    22    24    23    2
    23     6     4    1
    24    37    38   ar
    25    23    18    1
    26     8     7    2
    27     1     2    1
    28    41    40   ar
    29    39    38   ar
    30    39    40   ar
    31     2     7    1
    32     2     3    1
    33    20    19    1
    34     7     9   am
    35     4     3    1
    36     4     5    1
    37    19    18    1
    38    19    21    1
    39    18    17    1
    40    17    15   am
    41     9    10    1
    42    15    10    1
    43    15    16    2
    44    10    11    1
    45    21    22    1
    46    13    12   ar
    47    11    12    1
    48    12    14   ar
