@<TRIPOS>MOLECULE
9910224
 46 49 0 0 0
SMALL
GASTEIGER

@<TRIPOS>ATOM
      1 S          -6.9918    5.9085   -2.1750 S.O2    1  LIG11       0.0756
      2 O          -6.6640    6.8500   -3.2259 O.2     1  LIG11      -0.1499
      3 O          -8.2711    5.9758   -1.5097 O.2     1  LIG11      -0.1499
      4 O          -6.3269    4.7667   -5.5508 O.3     1  LIG11      -0.4773
      5 O         -11.2206    2.3608    2.2581 O.2     1  LIG11      -0.4229
      6 N          -6.6934    4.3630   -2.8141 N.pl3   1  LIG11      -0.1951
      7 N          -4.7523    5.6214    1.1964 N.ar    1  LIG11      -0.2530
      8 N          -8.7811    3.3893   -3.2494 N.ar    1  LIG11      -0.2325
      9 N          -8.4512    3.8372   -6.0483 N.ar    1  LIG11      -0.2137
     10 N         -10.8589    3.4351    4.1866 N.ar    1  LIG11      -0.1076
     11 N         -12.0309    2.7167    4.3124 N.ar    1  LIG11      -0.1156
     12 C          -5.6927    5.9919   -0.9757 C.ar    1  LIG11       0.1344
     13 C          -5.8047    5.5083    0.3263 C.ar    1  LIG11       0.0975
     14 C          -6.9777    4.8802    0.9646 C.ar    1  LIG11       0.0023
     15 C          -4.4960    6.6166   -1.3726 C.ar    1  LIG11      -0.0315
     16 C          -7.6447    3.7657    0.4361 C.ar    1  LIG11      -0.0518
     17 C          -7.4353    5.3749    2.2004 C.ar    1  LIG11      -0.0518
     18 C          -7.6870    3.9774   -3.7637 C.ar    1  LIG11       0.2006
     19 C          -9.2322    3.7405    2.2897 C.ar    1  LIG11       0.0385
     20 C          -8.7676    3.2176    1.0766 C.ar    1  LIG11      -0.0488
     21 C          -8.5376    4.8143    2.8555 C.ar    1  LIG11      -0.0488
     22 C          -3.4381    6.7279   -0.4807 C.ar    1  LIG11      -0.0417
     23 C          -3.6117    6.2139    0.7847 C.ar    1  LIG11       0.0284
     24 C          -7.5253    4.2124   -5.1364 C.ar    1  LIG11       0.2574
     25 C         -10.4045    3.2066    2.9688 C.ar    1  LIG11       0.2480
     26 C          -9.5609    3.2447   -5.5381 C.ar    1  LIG11       0.0602
     27 C          -9.7138    3.0340   -4.1663 C.ar    1  LIG11       0.0510
     28 C         -10.6160    2.7944   -6.4996 C.3     1  LIG11      -0.0208
     29 C          -6.3469    5.1549   -6.9210 C.3     1  LIG11       0.0805
     30 C         -12.2072    2.1136    3.1619 C.ar    1  LIG11       0.2047
     31 H          -5.8054    4.4261   -3.3184 H       1  LIG11       0.1754
     32 H          -4.3827    7.0291   -2.3743 H       1  LIG11       0.0638
     33 H          -7.3159    3.3056   -0.4919 H       1  LIG11       0.0624
     34 H          -6.9216    6.2139    2.6690 H       1  LIG11       0.0624
     35 H          -9.2720    2.3760    0.6059 H       1  LIG11       0.0625
     36 H          -8.8548    5.2350    3.8083 H       1  LIG11       0.0625
     37 H          -2.5075    7.2078   -0.7649 H       1  LIG11       0.0633
     38 H          -2.8231    6.2686    1.5303 H       1  LIG11       0.0830
     39 H         -10.6035    2.5607   -3.7623 H       1  LIG11       0.0848
     40 H         -10.3497    3.0695   -7.5254 H       1  LIG11       0.0293
     41 H         -11.5753    3.2623   -6.2595 H       1  LIG11       0.0293
     42 H         -10.7245    1.7062   -6.4569 H       1  LIG11       0.0293
     43 H          -5.4017    5.6628   -7.1361 H       1  LIG11       0.0660
     44 H          -7.1586    5.8620   -7.1251 H       1  LIG11       0.0660
     45 H          -6.4113    4.2802   -7.5771 H       1  LIG11       0.0660
     46 H         -13.0148    1.4682    2.8529 H       1  LIG11       0.1272
@<TRIPOS>BOND
     1     1     2    2
     2     1     3    2
     3     1     6    1
     4     1    12    1
     5     4    24    1
     6     4    29    1
     7     5    25   ar
     8     5    30   ar
     9     6    18    1
    10     7    13   ar
    11     7    23   ar
    12     8    18   ar
    13     8    27   ar
    14     9    24   ar
    15     9    26   ar
    16    10    11   ar
    17    10    25   ar
    18    11    30   ar
    19    12    13   ar
    20    12    15   ar
    21    13    14    1
    22    14    16   ar
    23    14    17   ar
    24    15    22   ar
    25    16    20   ar
    26    17    21   ar
    27    18    24   ar
    28    19    20   ar
    29    19    21   ar
    30    19    25    1
    31    22    23   ar
    32    26    27   ar
    33    26    28    1
    34     6    31    1
    35    15    32    1
    36    16    33    1
    37    17    34    1
    38    20    35    1
    39    21    36    1
    40    22    37    1
    41    23    38    1
    42    27    39    1
    43    28    40    1
    44    28    41    1
    45    28    42    1
    46    29    43    1
    47    29    44    1
    48    29    45    1
    49    30    46    1
@<TRIPOS>MOLECULE
../1EDN/3STEPMIN_17-21.pdb
 47 48 0 0 0
SMALL
GASTEIGER

@<TRIPOS>ATOM
      1  N         -5.4290    0.8830   -1.1740 N.3    17  LEU17      -0.1231
      2  CA        -6.8230    0.6710   -0.7980 C.3    17  LEU17       0.1693
      3  CB        -6.9230   -0.4370    0.2770 C.3    17  LEU17       0.0284
      4  CG        -6.4950   -1.8450   -0.1910 C.3    17  LEU17       0.0019
      5  CD1       -6.5150   -2.8060    0.9980 C.3    17  LEU17       0.0001
      6  CD2       -7.4310   -2.4140   -1.2600 C.3    17  LEU17       0.0001
      7  C         -7.3990    2.0370   -0.3760 C.2    17  LEU17       0.2592
      8  O         -7.4670    2.9330   -1.2040 O.2    17  LEU17      -0.2718
      9  N         -7.7380    2.2560    0.8970 N.am   18  ASP18      -0.1960
     10  CA        -8.5130    3.4280    1.3730 C.3    18  ASP18       0.1840
     11  CB        -9.0510    3.1310    2.7840 C.3    18  ASP18       0.1450
     12  CG       -10.5470    3.4340    2.8500 C.2    18  ASP18       0.3671
     13  OD1      -11.3300    2.4930    2.5610 O.co2  18  ASP18      -0.2456
     14  OD2      -10.9050    4.5930    3.1470 O.co2  18  ASP18      -0.2456
     15  C         -7.8270    4.8120    1.2910 C.2    18  ASP18       0.2622
     16  O         -8.3890    5.8210    1.7350 O.2    18  ASP18      -0.2715
     17  N         -6.6250    4.8510    0.7010 N.am   19  ILE19      -0.1963
     18  CA        -5.9180    6.0210    0.1680 C.3    19  ILE19       0.1727
     19  CB        -4.3960    5.7260    0.0740 C.3    19  ILE19       0.0290
     20  CG2       -3.6150    6.9530   -0.4300 C.3    19  ILE19       0.0023
     21  CG1       -3.7730    5.2100    1.3920 C.3    19  ILE19       0.0022
     22  CD1       -3.8620    6.1700    2.5820 C.3    19  ILE19       0.0001
     23  C         -6.4970    6.4050   -1.2110 C.2    19  ILE19       0.2616
     24  O         -7.0070    7.5130   -1.3720 O.2    19  ILE19      -0.2715
     25  N         -6.3950    5.4980   -2.1940 N.am   20  ILE20      -0.1963
     26  CA        -6.9990    5.5490   -3.5400 C.3    20  ILE20       0.1727
     27  CB        -6.0900    6.2460   -4.5940 C.3    20  ILE20       0.0290
     28  CG2       -6.7980    6.2490   -5.9680 C.3    20  ILE20       0.0023
     29  CG1       -5.7140    7.6970   -4.2070 C.3    20  ILE20       0.0022
     30  CD1       -4.7810    8.4150   -5.1910 C.3    20  ILE20       0.0001
     31  C         -7.3180    4.1070   -3.9880 C.2    20  ILE20       0.2617
     32  O         -6.4020    3.3070   -4.2100 O.2    20  ILE20      -0.2715
     33  N         -8.6100    3.8210   -4.1620 N.am   21  TRP21      -0.1938
     34  CA        -9.2240    2.5950   -4.7020 C.3    21  TRP21       0.2021
     35  CB        -9.7020    1.6830   -3.5450 C.3    21  TRP21       0.0612
     36  CG       -10.4970    2.2370   -2.3850 C.ar   21  TRP21       0.0007
     37  CD1      -10.6860    1.5470   -1.2340 C.ar   21  TRP21       0.0946
     38  NE1      -11.3350    2.3340   -0.3040 N.ar   21  TRP21      -0.2442
     39  CE2      -11.5720    3.5950   -0.7990 C.ar   21  TRP21       0.0810
     40  CZ2      -12.0950    4.7480   -0.2000 C.ar   21  TRP21       0.0191
     41  CH2      -12.2340    5.9130   -0.9670 C.ar   21  TRP21       0.0015
     42  CZ3      -11.8800    5.8920   -2.3260 C.ar   21  TRP21       0.0001
     43  CE3      -11.3480    4.7280   -2.9100 C.ar   21  TRP21       0.0012
     44  CD2      -11.1270    3.5500   -2.1550 C.ar   21  TRP21       0.0152
     45  C        -10.3230    2.8760   -5.7330 C.2    21  TRP21       0.3845
     46  O        -11.0800    1.9620   -6.0950 O.co2  21  TRP21      -0.2437
     47  OXT      -10.4270    4.0430   -6.2080 O.co2  21  TRP21      -0.2437
@<TRIPOS>BOND
     1    47    45   ar
     2    46    45   ar
     3    28    27    1
     4    45    34    1
     5    30    29    1
     6    34    33    1
     7    34    35    1
     8    27    29    1
     9    27    26    1
    10    32    31    2
    11    33    31   am
    12    31    26    1
    13    35    36    1
    14    26    25    1
    15    43    42   ar
    16    43    44   ar
    17    36    44   ar
    18    36    37   ar
    19    42    41   ar
    20    25    23   am
    21    44    39   ar
    22    24    23    2
    23     6     4    1
    24    37    38   ar
    25    23    18    1
    26     8     7    2
    27     1     2    1
    28    41    40   ar
    29    39    38   ar
    30    39    40   ar
    31     2     7    1
    32     2     3    1
    33    20    19    1
    34     7     9   am
    35     4     3    1
    36     4     5    1
    37    19    18    1
    38    19    21    1
    39    18    17    1
    40    17    15   am
    41     9    10    1
    42    15    10    1
    43    15    16    2
    44    10    11    1
    45    21    22    1
    46    13    12   ar
    47    11    12    1
    48    12    14   ar
