@<TRIPOS>MOLECULE
108002
 64 68 0 0 0
SMALL
GASTEIGER

@<TRIPOS>ATOM
      1 O          -4.6195    5.3918    1.6133 O.co2   1  LIG11      -0.5495
      2 O          -3.4016    5.9152   -0.2323 O.co2   1  LIG11      -0.5495
      3 O          -9.1142    2.9052   -4.5409 O.3     1  LIG11      -0.4920
      4 O          -6.9925    1.6745    0.3179 O.3     1  LIG11      -0.4858
      5 O          -8.1521   10.5786   -1.5225 O.3     1  LIG11      -0.4526
      6 O          -6.2001   11.9310   -1.9588 O.3     1  LIG11      -0.4526
      7 O         -10.4523    3.0206    3.3351 O.3     1  LIG11      -0.4950
      8 O          -5.9971   -1.6142    0.3788 O.co2   1  LIG11      -0.5463
      9 O          -6.8922   -0.6563   -1.4891 O.co2   1  LIG11      -0.5463
     10 C          -5.7756    5.7354   -0.4143 C.3     1  LIG11       0.0203
     11 C          -6.4717    4.3420   -0.5798 C.3     1  LIG11       0.0218
     12 C          -5.5550    6.3194   -1.8274 C.3     1  LIG11       0.0184
     13 C          -7.0609    4.4570   -1.9788 C.ar    1  LIG11      -0.0320
     14 C          -6.5642    5.5699   -2.6591 C.ar    1  LIG11      -0.0353
     15 C          -5.7193    7.8354   -1.8763 C.ar    1  LIG11      -0.0356
     16 C          -7.5427    3.9943    0.4626 C.ar    1  LIG11       0.0026
     17 C          -4.4718    5.6386    0.3813 C.2     1  LIG11       0.0466
     18 C          -7.9201    3.5730   -2.6263 C.ar    1  LIG11      -0.0159
     19 C          -6.9116    5.8195   -3.9813 C.ar    1  LIG11      -0.0542
     20 C          -8.3142    3.8400   -3.9418 C.ar    1  LIG11       0.1208
     21 C          -7.7483    2.6682    0.9051 C.ar    1  LIG11       0.1283
     22 C          -6.9678    8.4514   -1.6653 C.ar    1  LIG11      -0.0124
     23 C          -4.5823    8.6427   -2.1128 C.ar    1  LIG11      -0.0543
     24 C          -7.7925    4.9491   -4.6225 C.ar    1  LIG11      -0.0196
     25 C          -8.4028    4.9943    0.9625 C.ar    1  LIG11      -0.0510
     26 C          -7.0318    9.8287   -1.7110 C.ar    1  LIG11       0.1665
     27 C          -4.6790   10.0372   -2.1643 C.ar    1  LIG11      -0.0159
     28 C          -8.7225    2.4130    1.8888 C.ar    1  LIG11       0.0221
     29 C          -9.3812    4.7199    1.9218 C.ar    1  LIG11      -0.0194
     30 C          -5.9199   10.5980   -1.9576 C.ar    1  LIG11       0.1662
     31 C          -9.5386    3.4262    2.3979 C.ar    1  LIG11       0.1236
     32 C         -10.1938    3.4196   -5.3174 C.3     1  LIG11       0.0893
     33 C          -7.6024   11.9048   -1.6270 C.3     1  LIG11       0.2332
     34 C          -7.3563    0.3166    0.6470 C.3     1  LIG11       0.1287
     35 C         -10.6251    2.3470   -6.3168 C.3     1  LIG11      -0.0215
     36 C          -6.6452   -0.7181   -0.2480 C.2     1  LIG11       0.0789
     37 C         -11.3384    4.0142    3.8274 C.3     1  LIG11       0.0788
     38 C          -9.5040    1.9788   -7.2807 C.3     1  LIG11      -0.0622
     39 H          -6.3928    6.4304    0.1643 H       1  LIG11       0.0379
     40 H          -5.6973    3.5643   -0.5941 H       1  LIG11       0.0405
     41 H          -4.5770    6.0443   -2.2434 H       1  LIG11       0.0404
     42 H          -8.2583    2.6684   -2.1250 H       1  LIG11       0.0657
     43 H          -6.4767    6.6576   -4.5155 H       1  LIG11       0.0622
     44 H          -7.8545    7.8620   -1.4615 H       1  LIG11       0.0658
     45 H          -3.6087    8.1656   -2.2302 H       1  LIG11       0.0622
     46 H          -8.0112    5.1178   -5.6700 H       1  LIG11       0.0654
     47 H          -8.3230    6.0161    0.6044 H       1  LIG11       0.0623
     48 H          -3.8030   10.6484   -2.3392 H       1  LIG11       0.0655
     49 H          -8.8726    1.4122    2.2788 H       1  LIG11       0.0691
     50 H          -9.9881    5.5448    2.2725 H       1  LIG11       0.0654
     51 H         -11.0279    3.6481   -4.6438 H       1  LIG11       0.0696
     52 H          -9.9464    4.3313   -5.8696 H       1  LIG11       0.0696
     53 H          -8.1536   12.4504   -2.4013 H       1  LIG11       0.1166
     54 H          -7.7453   12.4210   -0.6699 H       1  LIG11       0.1166
     55 H          -7.0962    0.1200    1.6949 H       1  LIG11       0.0760
     56 H          -8.4308    0.1597    0.4897 H       1  LIG11       0.0760
     57 H         -10.9307    1.4427   -5.7776 H       1  LIG11       0.0295
     58 H         -11.4909    2.7057   -6.8852 H       1  LIG11       0.0295
     59 H         -12.0139    3.5349    4.5429 H       1  LIG11       0.0660
     60 H         -10.7955    4.8018    4.3608 H       1  LIG11       0.0660
     61 H         -11.9528    4.4316    3.0225 H       1  LIG11       0.0660
     62 H          -8.6525    1.5409   -6.7507 H       1  LIG11       0.0231
     63 H          -9.8581    1.2446   -8.0101 H       1  LIG11       0.0231
     64 H          -9.1515    2.8596   -7.8267 H       1  LIG11       0.0231
@<TRIPOS>BOND
     1     1    17   ar
     2     2    17   ar
     3     3    20    1
     4     3    32    1
     5     4    21    1
     6     4    34    1
     7     5    26    1
     8     5    33    1
     9     6    30    1
    10     6    33    1
    11     7    31    1
    12     7    37    1
    13     8    36   ar
    14     9    36   ar
    15    10    11    1
    16    10    12    1
    17    10    17    1
    18    11    13    1
    19    11    16    1
    20    12    14    1
    21    12    15    1
    22    13    14   ar
    23    13    18   ar
    24    14    19   ar
    25    15    22   ar
    26    15    23   ar
    27    16    21   ar
    28    16    25   ar
    29    18    20   ar
    30    19    24   ar
    31    20    24   ar
    32    21    28   ar
    33    22    26   ar
    34    23    27   ar
    35    25    29   ar
    36    26    30   ar
    37    27    30   ar
    38    28    31   ar
    39    29    31   ar
    40    32    35    1
    41    34    36    1
    42    35    38    1
    43    10    39    1
    44    11    40    1
    45    12    41    1
    46    18    42    1
    47    19    43    1
    48    22    44    1
    49    23    45    1
    50    24    46    1
    51    25    47    1
    52    27    48    1
    53    28    49    1
    54    29    50    1
    55    32    51    1
    56    32    52    1
    57    33    53    1
    58    33    54    1
    59    34    55    1
    60    34    56    1
    61    35    57    1
    62    35    58    1
    63    37    59    1
    64    37    60    1
    65    37    61    1
    66    38    62    1
    67    38    63    1
    68    38    64    1
@<TRIPOS>MOLECULE
../1EDN/3STEPMIN_17-21.pdb
 47 48 0 0 0
SMALL
GASTEIGER

@<TRIPOS>ATOM
      1  N         -5.4290    0.8830   -1.1740 N.3    17  LEU17      -0.1231
      2  CA        -6.8230    0.6710   -0.7980 C.3    17  LEU17       0.1693
      3  CB        -6.9230   -0.4370    0.2770 C.3    17  LEU17       0.0284
      4  CG        -6.4950   -1.8450   -0.1910 C.3    17  LEU17       0.0019
      5  CD1       -6.5150   -2.8060    0.9980 C.3    17  LEU17       0.0001
      6  CD2       -7.4310   -2.4140   -1.2600 C.3    17  LEU17       0.0001
      7  C         -7.3990    2.0370   -0.3760 C.2    17  LEU17       0.2592
      8  O         -7.4670    2.9330   -1.2040 O.2    17  LEU17      -0.2718
      9  N         -7.7380    2.2560    0.8970 N.am   18  ASP18      -0.1960
     10  CA        -8.5130    3.4280    1.3730 C.3    18  ASP18       0.1840
     11  CB        -9.0510    3.1310    2.7840 C.3    18  ASP18       0.1450
     12  CG       -10.5470    3.4340    2.8500 C.2    18  ASP18       0.3671
     13  OD1      -11.3300    2.4930    2.5610 O.co2  18  ASP18      -0.2456
     14  OD2      -10.9050    4.5930    3.1470 O.co2  18  ASP18      -0.2456
     15  C         -7.8270    4.8120    1.2910 C.2    18  ASP18       0.2622
     16  O         -8.3890    5.8210    1.7350 O.2    18  ASP18      -0.2715
     17  N         -6.6250    4.8510    0.7010 N.am   19  ILE19      -0.1963
     18  CA        -5.9180    6.0210    0.1680 C.3    19  ILE19       0.1727
     19  CB        -4.3960    5.7260    0.0740 C.3    19  ILE19       0.0290
     20  CG2       -3.6150    6.9530   -0.4300 C.3    19  ILE19       0.0023
     21  CG1       -3.7730    5.2100    1.3920 C.3    19  ILE19       0.0022
     22  CD1       -3.8620    6.1700    2.5820 C.3    19  ILE19       0.0001
     23  C         -6.4970    6.4050   -1.2110 C.2    19  ILE19       0.2616
     24  O         -7.0070    7.5130   -1.3720 O.2    19  ILE19      -0.2715
     25  N         -6.3950    5.4980   -2.1940 N.am   20  ILE20      -0.1963
     26  CA        -6.9990    5.5490   -3.5400 C.3    20  ILE20       0.1727
     27  CB        -6.0900    6.2460   -4.5940 C.3    20  ILE20       0.0290
     28  CG2       -6.7980    6.2490   -5.9680 C.3    20  ILE20       0.0023
     29  CG1       -5.7140    7.6970   -4.2070 C.3    20  ILE20       0.0022
     30  CD1       -4.7810    8.4150   -5.1910 C.3    20  ILE20       0.0001
     31  C         -7.3180    4.1070   -3.9880 C.2    20  ILE20       0.2617
     32  O         -6.4020    3.3070   -4.2100 O.2    20  ILE20      -0.2715
     33  N         -8.6100    3.8210   -4.1620 N.am   21  TRP21      -0.1938
     34  CA        -9.2240    2.5950   -4.7020 C.3    21  TRP21       0.2021
     35  CB        -9.7020    1.6830   -3.5450 C.3    21  TRP21       0.0612
     36  CG       -10.4970    2.2370   -2.3850 C.ar   21  TRP21       0.0007
     37  CD1      -10.6860    1.5470   -1.2340 C.ar   21  TRP21       0.0946
     38  NE1      -11.3350    2.3340   -0.3040 N.ar   21  TRP21      -0.2442
     39  CE2      -11.5720    3.5950   -0.7990 C.ar   21  TRP21       0.0810
     40  CZ2      -12.0950    4.7480   -0.2000 C.ar   21  TRP21       0.0191
     41  CH2      -12.2340    5.9130   -0.9670 C.ar   21  TRP21       0.0015
     42  CZ3      -11.8800    5.8920   -2.3260 C.ar   21  TRP21       0.0001
     43  CE3      -11.3480    4.7280   -2.9100 C.ar   21  TRP21       0.0012
     44  CD2      -11.1270    3.5500   -2.1550 C.ar   21  TRP21       0.0152
     45  C        -10.3230    2.8760   -5.7330 C.2    21  TRP21       0.3845
     46  O        -11.0800    1.9620   -6.0950 O.co2  21  TRP21      -0.2437
     47  OXT      -10.4270    4.0430   -6.2080 O.co2  21  TRP21      -0.2437
@<TRIPOS>BOND
     1    47    45   ar
     2    46    45   ar
     3    28    27    1
     4    45    34    1
     5    30    29    1
     6    34    33    1
     7    34    35    1
     8    27    29    1
     9    27    26    1
    10    32    31    2
    11    33    31   am
    12    31    26    1
    13    35    36    1
    14    26    25    1
    15    43    42   ar
    16    43    44   ar
    17    36    44   ar
    18    36    37   ar
    19    42    41   ar
    20    25    23   am
    21    44    39   ar
    22    24    23    2
    23     6     4    1
    24    37    38   ar
    25    23    18    1
    26     8     7    2
    27     1     2    1
    28    41    40   ar
    29    39    38   ar
    30    39    40   ar
    31     2     7    1
    32     2     3    1
    33    20    19    1
    34     7     9   am
    35     4     3    1
    36     4     5    1
    37    19    18    1
    38    19    21    1
    39    18    17    1
    40    17    15   am
    41     9    10    1
    42    15    10    1
    43    15    16    2
    44    10    11    1
    45    21    22    1
    46    13    12   ar
    47    11    12    1
    48    12    14   ar
