@<TRIPOS>MOLECULE
123882
 117 122 0 0 0
SMALL
GASTEIGER

@<TRIPOS>ATOM
      1 S          -9.6556    4.4067    4.2808 S.2     3  UNK33      -0.0993
      2 O          -5.3495    8.9743   -4.5498 O.2     1  UNK11      -0.2755
      3 O          -9.1862   -0.2508   -1.5721 O.2     4  LEU44      -0.2738
      4 O          -7.7273    7.4516   -2.7634 O.2     1  UNK11      -0.2737
      5 O          -8.9855    3.6610   -2.3296 O.2     5  TRP55      -0.2738
      6 O          -8.9371    5.3361   -5.1934 O.2     6  ASP66      -0.2738
      7 O          -9.5974    2.5383    2.1051 O.2     3  UNK33      -0.2734
      8 O          -6.5545    4.0874   -0.5850 O.2     2  ASP22      -0.2737
      9 OD1        -9.2322    0.5090   -5.9518 O.co2   6  ASP66      -0.5497
     10 OD2        -7.2225    0.4661   -7.0460 O.co2   6  ASP66      -0.5497
     11 OD1        -3.7852    4.6157    0.8936 O.co2   2  ASP22      -0.5497
     12 OD2        -3.4822    5.1769   -1.3121 O.co2   2  ASP22      -0.5497
     13 N          -3.2160    8.3741   -5.0861 N.am    1  UNK11      -0.2984
     14 N          -1.0175    9.3557   -6.6947 N.pl3   1  UNK11      -0.3269
     15 N          -6.7311    4.9474   -4.6870 N.am    1  UNK11      -0.3020
     16 N         -10.1687    1.6917   -0.9223 N.am    5  TRP55      -0.3022
     17 N          -7.9567    2.3845    0.5941 N.am    4  LEU44      -0.3022
     18 N          -9.5223    2.6343   -4.3044 N.am    6  ASP66      -0.3021
     19 N          -5.8397    6.3461   -2.1272 N.am    2  ASP22      -0.3021
     20 N          -7.7774    5.4407    0.8034 N.am    3  UNK33      -0.2984
     21 NE1       -12.0120    6.2059   -1.1479 N.ar    5  TRP55      -0.3604
     22 C          -2.7821    9.7679   -4.9696 C.3     1  UNK11       0.0304
     23 C          -2.1998    7.4288   -5.5687 C.3     1  UNK11       0.0304
     24 C          -1.3210    9.9909   -5.3959 C.3     1  UNK11       0.0280
     25 C          -1.5215    7.9622   -6.8502 C.3     1  UNK11       0.0280
     26 C          -4.5470    8.0813   -4.8199 C.2     1  UNK11       0.2179
     27 C          -4.9563    6.6238   -4.9165 C.3     1  UNK11       0.0510
     28 C          -6.4146    6.3748   -4.5248 C.3     1  UNK11       0.1076
     29 CA         -8.1168    0.9639    0.2679 C.3     4  LEU44       0.0997
     30 CB         -6.7140    0.4365   -0.1049 C.3     4  LEU44      -0.0236
     31 CA        -10.7363    1.9829   -2.2400 C.3     5  TRP55       0.1034
     32 C          -1.0398   10.1137   -7.8700 C.ar    1  UNK11       0.0298
     33 CG         -6.5580   -1.0654   -0.4017 C.3     4  LEU44      -0.0446
     34 CB        -12.1055    2.6632   -2.1554 C.3     5  TRP55       0.0013
     35 C          -9.1575    0.7513   -0.8604 C.2     4  LEU44       0.2340
     36 CA         -8.2363    3.0022   -4.8997 C.3     6  ASP66       0.1045
     37 C          -6.7315    6.7945   -3.0673 C.2     1  UNK11       0.2344
     38 CG        -12.1317    4.0023   -1.4724 C.ar    5  TRP55      -0.0201
     39 C          -9.6775    2.8514   -2.9514 C.2     5  TRP55       0.2343
     40 C          -8.0399    4.5430   -4.9112 C.2     6  ASP66       0.2343
     41 CA         -6.0858    6.4619   -0.7001 C.3     2  ASP22       0.1045
     42 CD2        -6.9766   -1.9434    0.7738 C.3     4  LEU44      -0.0626
     43 CD1        -5.1059   -1.3637   -0.7927 C.3     4  LEU44      -0.0626
     44 C          -8.0264    4.5009    1.9118 C.3     3  UNK33       0.1311
     45 C          -0.3492    9.6562   -9.0054 C.ar    1  UNK11      -0.0407
     46 C          -1.7139   11.3374   -7.9882 C.ar    1  UNK11      -0.0407
     47 CD2       -12.3523    4.2798   -0.0827 C.ar    5  TRP55       0.0029
     48 C          -8.6598    3.0936    1.5338 C.2     3  UNK33       0.2390
     49 CB         -8.1014    2.5318   -6.3448 C.3     6  ASP66       0.0138
     50 CD1       -11.9427    5.2217   -2.0932 C.ar    5  TRP55       0.0060
     51 CE2       -12.3095    5.6657    0.0805 C.ar    5  TRP55       0.0467
     52 C          -6.8404    5.2116   -0.1951 C.2     2  ASP22       0.2345
     53 CB         -4.7744    6.5860    0.0686 C.3     2  ASP22       0.0138
     54 C          -0.3231   10.3888  -10.1978 C.ar    1  UNK11      -0.0600
     55 C          -1.7024   12.0710   -9.1809 C.ar    1  UNK11      -0.0600
     56 C          -8.8009    5.2463    3.0305 C.ar    3  UNK33       0.0189
     57 CE3       -12.5696    3.4804    1.0569 C.ar    5  TRP55      -0.0523
     58 C          -1.0021   11.5987  -10.2850 C.ar    1  UNK11      -0.0616
     59 CZ2       -12.5152    6.2930    1.3156 C.ar    5  TRP55      -0.0378
     60 CG         -8.1830    1.0194   -6.4468 C.2     6  ASP66       0.0440
     61 CZ3       -12.7760    4.0897    2.2994 C.ar    5  TRP55      -0.0611
     62 C          -8.8257    6.6081    3.3241 C.ar    3  UNK33      -0.0493
     63 CH2       -12.7673    5.4763    2.4205 C.ar    5  TRP55      -0.0598
     64 CG         -3.9361    5.3241   -0.1421 C.2     2  ASP22       0.0440
     65 C          -9.7319    6.9502    4.3728 C.ar    3  UNK33      -0.0544
     66 C         -10.3158    5.8365    4.9228 C.ar    3  UNK33      -0.0240
     67 H          -6.1409    4.2803   -4.2003 H       1  UNK11       0.1495
     68 H          -9.9872    2.5215   -0.3667 H       5  TRP55       0.1495
     69 H          -7.3398    2.9184   -0.0255 H       4  LEU44       0.1495
     70 H          -9.8501    1.7269   -4.6575 H       6  ASP66       0.1495
     71 H          -5.1284    5.6503   -2.3593 H       2  ASP22       0.1495
     72 H          -8.0573    6.3982    0.9210 H       3  UNK33       0.1498
     73 HE1       -11.8497    7.1860   -1.3285 H       5  TRP55       0.1653
     74 H          -3.4539   10.3797   -5.5810 H       1  UNK11       0.0480
     75 H          -2.9161   10.0786   -3.9268 H       1  UNK11       0.0480
     76 H          -1.4624    7.3113   -4.7650 H       1  UNK11       0.0480
     77 H          -2.6194    6.4416   -5.7673 H       1  UNK11       0.0480
     78 H          -0.6601    9.5319   -4.6488 H       1  UNK11       0.0479
     79 H          -1.0651   11.0566   -5.3828 H       1  UNK11       0.0479
     80 H          -2.2641    7.9179   -7.6590 H       1  UNK11       0.0479
     81 H          -0.6890    7.3025   -7.1192 H       1  UNK11       0.0479
     82 H          -4.8188    6.3067   -5.9583 H       1  UNK11       0.0381
     83 H          -4.2791    6.0275   -4.2952 H       1  UNK11       0.0381
     84 H          -7.0702    6.9592   -5.1811 H       1  UNK11       0.0599
     85 HA         -8.5003    0.4576    1.1594 H       4  LEU44       0.0594
     86 HB1        -6.3541    0.9975   -0.9790 H       4  LEU44       0.0290
     87 HB2        -6.0256    0.6968    0.7136 H       4  LEU44       0.0290
     88 HA        -10.8476    1.0398   -2.7881 H       5  TRP55       0.0598
     89 HG         -7.1677   -1.3370   -1.2674 H       4  LEU44       0.0296
     90 HB1       -12.5084    2.7862   -3.1685 H       5  TRP55       0.0337
     91 HB2       -12.8025    1.9960   -1.6292 H       5  TRP55       0.0337
     92 HA         -7.4557    2.5411   -4.2788 H       6  ASP66       0.0598
     93 HA         -6.6933    7.3560   -0.5215 H       2  ASP22       0.0598
     94 HD21       -6.3496   -1.7579    1.6519 H       4  LEU44       0.0232
     95 HD22       -8.0198   -1.7680    1.0532 H       4  LEU44       0.0232
     96 HD23       -6.8852   -3.0022    0.5103 H       4  LEU44       0.0232
     97 HD11       -4.4166   -1.1483    0.0305 H       4  LEU44       0.0232
     98 HD12       -4.9884   -2.4162   -1.0706 H       4  LEU44       0.0232
     99 HD13       -4.8037   -0.7589   -1.6547 H       4  LEU44       0.0232
    100 H          -7.0377    4.2658    2.3300 H       3  UNK33       0.0651
    101 H           0.2041    8.7216   -8.9571 H       1  UNK11       0.0636
    102 H          -2.2941   11.7364   -7.1621 H       1  UNK11       0.0636
    103 HB1        -8.8977    2.9569   -6.9675 H       6  ASP66       0.0348
    104 HB2        -7.1490    2.8770   -6.7655 H       6  ASP66       0.0348
    105 HD1       -11.7102    5.4642   -3.1228 H       5  TRP55       0.0810
    106 HB1        -4.1901    7.4451   -0.2844 H       2  ASP22       0.0348
    107 HB2        -4.9648    6.7276    1.1383 H       2  ASP22       0.0348
    108 H           0.2309   10.0103  -11.0517 H       1  UNK11       0.0618
    109 H          -2.2497   13.0076   -9.2409 H       1  UNK11       0.0618
    110 HE3       -12.5396    2.3964    0.9834 H       5  TRP55       0.0624
    111 H          -0.9892   12.1693  -11.2091 H       1  UNK11       0.0618
    112 HZ2       -12.4650    7.3711    1.4194 H       5  TRP55       0.0638
    113 HZ3       -12.9049    3.4669    3.1809 H       5  TRP55       0.0618
    114 H          -8.2509    7.3499    2.7850 H       3  UNK33       0.0626
    115 HH2       -12.9163    5.9289    3.3964 H       5  TRP55       0.0618
    116 H          -9.9505    7.9593    4.6975 H       3  UNK33       0.0623
    117 H         -11.0661    5.7875    5.7013 H       3  UNK33       0.0693
@<TRIPOS>BOND
     1     1    56   ar
     2     1    66   ar
     3     2    26    2
     4     3    35    2
     5     4    37    2
     6     5    39    2
     7     6    40    2
     8     7    48    2
     9     8    52    2
    10     9    60   ar
    11    10    60   ar
    12    11    64   ar
    13    12    64   ar
    14    13    22    1
    15    13    23    1
    16    14    24    1
    17    14    25    1
    18    14    32    1
    19    15    28    1
    20    15    40   am
    21    16    35   am
    22    16    31    1
    23    17    48   am
    24    17    29    1
    25    18    39   am
    26    18    36    1
    27    19    37   am
    28    19    41    1
    29    20    52   am
    30    20    44    1
    31    21    50   ar
    32    21    51   ar
    33    22    24    1
    34    23    25    1
    35    26    27    1
    36    26    13   am
    37    28    37    1
    38    28    27    1
    39    29    35    1
    40    29    30    1
    41    30    33    1
    42    31    39    1
    43    31    34    1
    44    32    45   ar
    45    32    46   ar
    46    33    43    1
    47    33    42    1
    48    34    38    1
    49    36    40    1
    50    36    49    1
    51    38    47   ar
    52    38    50   ar
    53    41    52    1
    54    41    53    1
    55    44    48    1
    56    44    56    1
    57    45    54   ar
    58    46    55   ar
    59    47    57   ar
    60    47    51   ar
    61    49    60    1
    62    51    59   ar
    63    53    64    1
    64    54    58   ar
    65    55    58   ar
    66    56    62   ar
    67    57    61   ar
    68    59    63   ar
    69    61    63   ar
    70    62    65   ar
    71    65    66   ar
    72    15    67    1
    73    16    68    1
    74    17    69    1
    75    18    70    1
    76    19    71    1
    77    20    72    1
    78    21    73    1
    79    22    74    1
    80    22    75    1
    81    23    76    1
    82    23    77    1
    83    24    78    1
    84    24    79    1
    85    25    80    1
    86    25    81    1
    87    27    82    1
    88    27    83    1
    89    28    84    1
    90    29    85    1
    91    30    86    1
    92    30    87    1
    93    31    88    1
    94    33    89    1
    95    34    90    1
    96    34    91    1
    97    36    92    1
    98    41    93    1
    99    42    94    1
   100    42    95    1
   101    42    96    1
   102    43    97    1
   103    43    98    1
   104    43    99    1
   105    44   100    1
   106    45   101    1
   107    46   102    1
   108    49   103    1
   109    49   104    1
   110    50   105    1
   111    53   106    1
   112    53   107    1
   113    54   108    1
   114    55   109    1
   115    57   110    1
   116    58   111    1
   117    59   112    1
   118    61   113    1
   119    62   114    1
   120    63   115    1
   121    65   116    1
   122    66   117    1
@<TRIPOS>MOLECULE
../1EDN/3STEPMIN_17-21.pdb
 47 48 0 0 0
SMALL
GASTEIGER

@<TRIPOS>ATOM
      1  N         -5.4290    0.8830   -1.1740 N.3    17  LEU17      -0.1231
      2  CA        -6.8230    0.6710   -0.7980 C.3    17  LEU17       0.1693
      3  CB        -6.9230   -0.4370    0.2770 C.3    17  LEU17       0.0284
      4  CG        -6.4950   -1.8450   -0.1910 C.3    17  LEU17       0.0019
      5  CD1       -6.5150   -2.8060    0.9980 C.3    17  LEU17       0.0001
      6  CD2       -7.4310   -2.4140   -1.2600 C.3    17  LEU17       0.0001
      7  C         -7.3990    2.0370   -0.3760 C.2    17  LEU17       0.2592
      8  O         -7.4670    2.9330   -1.2040 O.2    17  LEU17      -0.2718
      9  N         -7.7380    2.2560    0.8970 N.am   18  ASP18      -0.1960
     10  CA        -8.5130    3.4280    1.3730 C.3    18  ASP18       0.1840
     11  CB        -9.0510    3.1310    2.7840 C.3    18  ASP18       0.1450
     12  CG       -10.5470    3.4340    2.8500 C.2    18  ASP18       0.3671
     13  OD1      -11.3300    2.4930    2.5610 O.co2  18  ASP18      -0.2456
     14  OD2      -10.9050    4.5930    3.1470 O.co2  18  ASP18      -0.2456
     15  C         -7.8270    4.8120    1.2910 C.2    18  ASP18       0.2622
     16  O         -8.3890    5.8210    1.7350 O.2    18  ASP18      -0.2715
     17  N         -6.6250    4.8510    0.7010 N.am   19  ILE19      -0.1963
     18  CA        -5.9180    6.0210    0.1680 C.3    19  ILE19       0.1727
     19  CB        -4.3960    5.7260    0.0740 C.3    19  ILE19       0.0290
     20  CG2       -3.6150    6.9530   -0.4300 C.3    19  ILE19       0.0023
     21  CG1       -3.7730    5.2100    1.3920 C.3    19  ILE19       0.0022
     22  CD1       -3.8620    6.1700    2.5820 C.3    19  ILE19       0.0001
     23  C         -6.4970    6.4050   -1.2110 C.2    19  ILE19       0.2616
     24  O         -7.0070    7.5130   -1.3720 O.2    19  ILE19      -0.2715
     25  N         -6.3950    5.4980   -2.1940 N.am   20  ILE20      -0.1963
     26  CA        -6.9990    5.5490   -3.5400 C.3    20  ILE20       0.1727
     27  CB        -6.0900    6.2460   -4.5940 C.3    20  ILE20       0.0290
     28  CG2       -6.7980    6.2490   -5.9680 C.3    20  ILE20       0.0023
     29  CG1       -5.7140    7.6970   -4.2070 C.3    20  ILE20       0.0022
     30  CD1       -4.7810    8.4150   -5.1910 C.3    20  ILE20       0.0001
     31  C         -7.3180    4.1070   -3.9880 C.2    20  ILE20       0.2617
     32  O         -6.4020    3.3070   -4.2100 O.2    20  ILE20      -0.2715
     33  N         -8.6100    3.8210   -4.1620 N.am   21  TRP21      -0.1938
     34  CA        -9.2240    2.5950   -4.7020 C.3    21  TRP21       0.2021
     35  CB        -9.7020    1.6830   -3.5450 C.3    21  TRP21       0.0612
     36  CG       -10.4970    2.2370   -2.3850 C.ar   21  TRP21       0.0007
     37  CD1      -10.6860    1.5470   -1.2340 C.ar   21  TRP21       0.0946
     38  NE1      -11.3350    2.3340   -0.3040 N.ar   21  TRP21      -0.2442
     39  CE2      -11.5720    3.5950   -0.7990 C.ar   21  TRP21       0.0810
     40  CZ2      -12.0950    4.7480   -0.2000 C.ar   21  TRP21       0.0191
     41  CH2      -12.2340    5.9130   -0.9670 C.ar   21  TRP21       0.0015
     42  CZ3      -11.8800    5.8920   -2.3260 C.ar   21  TRP21       0.0001
     43  CE3      -11.3480    4.7280   -2.9100 C.ar   21  TRP21       0.0012
     44  CD2      -11.1270    3.5500   -2.1550 C.ar   21  TRP21       0.0152
     45  C        -10.3230    2.8760   -5.7330 C.2    21  TRP21       0.3845
     46  O        -11.0800    1.9620   -6.0950 O.co2  21  TRP21      -0.2437
     47  OXT      -10.4270    4.0430   -6.2080 O.co2  21  TRP21      -0.2437
@<TRIPOS>BOND
     1    47    45   ar
     2    46    45   ar
     3    28    27    1
     4    45    34    1
     5    30    29    1
     6    34    33    1
     7    34    35    1
     8    27    29    1
     9    27    26    1
    10    32    31    2
    11    33    31   am
    12    31    26    1
    13    35    36    1
    14    26    25    1
    15    43    42   ar
    16    43    44   ar
    17    36    44   ar
    18    36    37   ar
    19    42    41   ar
    20    25    23   am
    21    44    39   ar
    22    24    23    2
    23     6     4    1
    24    37    38   ar
    25    23    18    1
    26     8     7    2
    27     1     2    1
    28    41    40   ar
    29    39    38   ar
    30    39    40   ar
    31     2     7    1
    32     2     3    1
    33    20    19    1
    34     7     9   am
    35     4     3    1
    36     4     5    1
    37    19    18    1
    38    19    21    1
    39    18    17    1
    40    17    15   am
    41     9    10    1
    42    15    10    1
    43    15    16    2
    44    10    11    1
    45    21    22    1
    46    13    12   ar
    47    11    12    1
    48    12    14   ar
