@<TRIPOS>MOLECULE
2-[[2-[2-butyl-4-[(Z)-2-carboxy-3-(6-methoxy-1,3-benzodioxol-5-yl)prop-1-enyl]pyrazol-3-yl]-5-methoxyphenoxy]methyl]benzoic acid
 77 81 0 0 0
SMALL
GASTEIGER

@<TRIPOS>ATOM
      1 O          -7.4925    2.2507   -0.0249 O.3     1  LIG11      -0.4866
      2 O          -5.5347    7.6031   -5.2286 O.3     1  LIG11      -0.4526
      3 O          -4.4467    5.4622   -5.4325 O.3     1  LIG11      -0.4525
      4 O          -8.5173    3.1365   -4.1080 O.3     1  LIG11      -0.4947
      5 O          -8.5424    1.4081    4.6107 O.3     1  LIG11      -0.4950
      6 O         -12.4527    5.3252   -2.7495 O.co2   1  LIG11      -0.5449
      7 O         -11.7976    3.4558   -1.6281 O.co2   1  LIG11      -0.5449
      8 O          -5.3933   -0.0503    0.8837 O.co2   1  LIG11      -0.5446
      9 O          -5.0973    0.4310   -1.3220 O.co2   1  LIG11      -0.5446
     10 N          -6.4709    6.0494    0.5647 N.ar    1  LIG11      -0.2630
     11 N          -6.5044    7.0058   -0.3929 N.ar    1  LIG11      -0.1785
     12 C          -7.5117    5.1330    0.4721 C.ar    1  LIG11       0.0795
     13 C          -5.6034    6.2962    1.7047 C.3     1  LIG11       0.0422
     14 C          -4.1180    6.5011    1.4009 C.3     1  LIG11      -0.0336
     15 C          -8.2314    5.5223   -0.6564 C.ar    1  LIG11       0.0207
     16 C          -7.7917    4.1048    1.4927 C.ar    1  LIG11       0.0425
     17 C          -3.3435    5.1833    1.4160 C.3     1  LIG11      -0.0542
     18 C          -7.5695    6.6721   -1.1228 C.ar    1  LIG11       0.0571
     19 C          -9.4906    4.9893   -1.0774 C.2     1  LIG11      -0.0459
     20 C          -9.7833    5.6326   -3.6121 C.3     1  LIG11       0.0029
     21 C          -7.7707    2.7253    1.2382 C.ar    1  LIG11       0.1336
     22 C         -10.1446    5.0742   -2.2575 C.2     1  LIG11      -0.0200
     23 C          -8.3579    5.5014   -4.1243 C.ar    1  LIG11       0.0023
     24 C          -8.1043    4.5259    2.7987 C.ar    1  LIG11      -0.0456
     25 C          -1.8420    5.4262    1.4035 C.3     1  LIG11      -0.0652
     26 C          -7.9764    1.8014    2.2747 C.ar    1  LIG11       0.0224
     27 C          -7.7298    4.2406   -4.3086 C.ar    1  LIG11       0.1273
     28 C          -7.6616    6.6773   -4.4786 C.ar    1  LIG11      -0.0092
     29 C          -8.3302    3.6064    3.8250 C.ar    1  LIG11      -0.0191
     30 C          -6.3548    6.5697   -4.8948 C.ar    1  LIG11       0.1667
     31 C          -8.2891    2.2453    3.5546 C.ar    1  LIG11       0.1236
     32 C          -5.7363    5.3501   -5.0088 C.ar    1  LIG11       0.1697
     33 C          -6.3959    4.1712   -4.7380 C.ar    1  LIG11       0.0258
     34 C         -11.6009    4.5535   -2.2124 C.2     1  LIG11       0.0680
     35 C          -8.5718    1.4672   -0.5539 C.3     1  LIG11       0.1153
     36 C          -4.2963    6.8936   -5.4277 C.3     1  LIG11       0.2332
     37 C          -8.3193   -0.0272   -0.7442 C.ar    1  LIG11      -0.0016
     38 C          -7.0713   -0.6785   -0.6508 C.ar    1  LIG11       0.0037
     39 C          -9.4439   -0.8123   -1.0828 C.ar    1  LIG11      -0.0547
     40 C          -7.8544    1.8788   -4.0301 C.3     1  LIG11       0.0788
     41 C          -6.9944   -2.0702   -0.8704 C.ar    1  LIG11      -0.0525
     42 C          -9.3501   -2.1904   -1.3016 C.ar    1  LIG11      -0.0614
     43 C          -9.4457    0.3589    4.2647 C.3     1  LIG11       0.0788
     44 C          -8.1211   -2.8238   -1.1924 C.ar    1  LIG11      -0.0611
     45 C          -5.7705    0.0059   -0.3305 C.2     1  LIG11       0.0720
     46 H          -5.9982    7.2127    2.1637 H       1  LIG11       0.0509
     47 H          -5.7192    5.4973    2.4385 H       1  LIG11       0.0509
     48 H          -3.9620    7.0204    0.4483 H       1  LIG11       0.0283
     49 H          -3.7071    7.1509    2.1847 H       1  LIG11       0.0283
     50 H          -3.5925    4.6131    2.3191 H       1  LIG11       0.0263
     51 H          -3.6295    4.5706    0.5544 H       1  LIG11       0.0263
     52 H          -7.8619    7.3295   -1.9252 H       1  LIG11       0.0854
     53 H         -10.0279    4.4707   -0.2802 H       1  LIG11       0.0628
     54 H         -10.4074    5.1584   -4.3829 H       1  LIG11       0.0363
     55 H         -10.0784    6.6908   -3.6181 H       1  LIG11       0.0363
     56 H          -8.1670    5.5884    3.0254 H       1  LIG11       0.0626
     57 H          -1.5348    6.0144    2.2755 H       1  LIG11       0.0230
     58 H          -1.3032    4.4747    1.4354 H       1  LIG11       0.0230
     59 H          -1.5365    5.9660    0.5020 H       1  LIG11       0.0230
     60 H          -7.8528    0.7428    2.0622 H       1  LIG11       0.0691
     61 H          -8.1275    7.6524   -4.3908 H       1  LIG11       0.0659
     62 H          -8.5489    3.9538    4.8285 H       1  LIG11       0.0654
     63 H          -5.8698    3.2337   -4.8602 H       1  LIG11       0.0692
     64 H          -9.4860    1.5890    0.0431 H       1  LIG11       0.0748
     65 H          -8.8078    1.8911   -1.5328 H       1  LIG11       0.0748
     66 H          -3.8695    7.2016   -6.3887 H       1  LIG11       0.1166
     67 H          -3.5967    7.1735   -4.6303 H       1  LIG11       0.1166
     68 H         -10.4200   -0.3293   -1.1874 H       1  LIG11       0.0622
     69 H          -8.6018    1.1245   -3.7675 H       1  LIG11       0.0660
     70 H          -7.4386    1.5955   -5.0022 H       1  LIG11       0.0660
     71 H          -7.0814    1.8818   -3.2548 H       1  LIG11       0.0660
     72 H          -6.0224   -2.5538   -0.7901 H       1  LIG11       0.0624
     73 H         -10.2388   -2.7605   -1.5643 H       1  LIG11       0.0618
     74 H          -9.7718   -0.1166    5.1940 H       1  LIG11       0.0660
     75 H         -10.3371    0.7526    3.7626 H       1  LIG11       0.0660
     76 H          -8.9589   -0.4071    3.6526 H       1  LIG11       0.0660
     77 H          -8.0283   -3.8896   -1.3624 H       1  LIG11       0.0618
@<TRIPOS>BOND
     1     1    35    1
     2     1    21    1
     3     2    36    1
     4     2    30    1
     5     3    32    1
     6     3    36    1
     7     4    27    1
     8     4    40    1
     9     5    31    1
    10     5    43    1
    11     6    34   ar
    12     7    34   ar
    13     8    45   ar
    14     9    45   ar
    15    10    11   ar
    16    10    12   ar
    17    10    13    1
    18    11    18   ar
    19    12    15   ar
    20    13    14    1
    21    14    17    1
    22    15    18   ar
    23    15    19    1
    24    16    24   ar
    25    16    21   ar
    26    16    12    1
    27    17    25    1
    28    19    22    2
    29    20    22    1
    30    20    23    1
    31    21    26   ar
    32    22    34    1
    33    23    28   ar
    34    23    27   ar
    35    24    29   ar
    36    26    31   ar
    37    27    33   ar
    38    28    30   ar
    39    29    31   ar
    40    30    32   ar
    41    32    33   ar
    42    35    37    1
    43    37    39   ar
    44    37    38   ar
    45    38    41   ar
    46    38    45    1
    47    39    42   ar
    48    41    44   ar
    49    42    44   ar
    50    13    46    1
    51    13    47    1
    52    14    48    1
    53    14    49    1
    54    17    50    1
    55    17    51    1
    56    18    52    1
    57    19    53    1
    58    20    54    1
    59    20    55    1
    60    24    56    1
    61    25    57    1
    62    25    58    1
    63    25    59    1
    64    26    60    1
    65    28    61    1
    66    29    62    1
    67    33    63    1
    68    35    64    1
    69    35    65    1
    70    36    66    1
    71    36    67    1
    72    39    68    1
    73    40    69    1
    74    40    70    1
    75    40    71    1
    76    41    72    1
    77    42    73    1
    78    43    74    1
    79    43    75    1
    80    43    76    1
    81    44    77    1
@<TRIPOS>MOLECULE
../1EDN/3STEPMIN_17-21.pdb
 47 48 0 0 0
SMALL
GASTEIGER

@<TRIPOS>ATOM
      1  N         -5.4290    0.8830   -1.1740 N.3    17  LEU17      -0.1231
      2  CA        -6.8230    0.6710   -0.7980 C.3    17  LEU17       0.1693
      3  CB        -6.9230   -0.4370    0.2770 C.3    17  LEU17       0.0284
      4  CG        -6.4950   -1.8450   -0.1910 C.3    17  LEU17       0.0019
      5  CD1       -6.5150   -2.8060    0.9980 C.3    17  LEU17       0.0001
      6  CD2       -7.4310   -2.4140   -1.2600 C.3    17  LEU17       0.0001
      7  C         -7.3990    2.0370   -0.3760 C.2    17  LEU17       0.2592
      8  O         -7.4670    2.9330   -1.2040 O.2    17  LEU17      -0.2718
      9  N         -7.7380    2.2560    0.8970 N.am   18  ASP18      -0.1960
     10  CA        -8.5130    3.4280    1.3730 C.3    18  ASP18       0.1840
     11  CB        -9.0510    3.1310    2.7840 C.3    18  ASP18       0.1450
     12  CG       -10.5470    3.4340    2.8500 C.2    18  ASP18       0.3671
     13  OD1      -11.3300    2.4930    2.5610 O.co2  18  ASP18      -0.2456
     14  OD2      -10.9050    4.5930    3.1470 O.co2  18  ASP18      -0.2456
     15  C         -7.8270    4.8120    1.2910 C.2    18  ASP18       0.2622
     16  O         -8.3890    5.8210    1.7350 O.2    18  ASP18      -0.2715
     17  N         -6.6250    4.8510    0.7010 N.am   19  ILE19      -0.1963
     18  CA        -5.9180    6.0210    0.1680 C.3    19  ILE19       0.1727
     19  CB        -4.3960    5.7260    0.0740 C.3    19  ILE19       0.0290
     20  CG2       -3.6150    6.9530   -0.4300 C.3    19  ILE19       0.0023
     21  CG1       -3.7730    5.2100    1.3920 C.3    19  ILE19       0.0022
     22  CD1       -3.8620    6.1700    2.5820 C.3    19  ILE19       0.0001
     23  C         -6.4970    6.4050   -1.2110 C.2    19  ILE19       0.2616
     24  O         -7.0070    7.5130   -1.3720 O.2    19  ILE19      -0.2715
     25  N         -6.3950    5.4980   -2.1940 N.am   20  ILE20      -0.1963
     26  CA        -6.9990    5.5490   -3.5400 C.3    20  ILE20       0.1727
     27  CB        -6.0900    6.2460   -4.5940 C.3    20  ILE20       0.0290
     28  CG2       -6.7980    6.2490   -5.9680 C.3    20  ILE20       0.0023
     29  CG1       -5.7140    7.6970   -4.2070 C.3    20  ILE20       0.0022
     30  CD1       -4.7810    8.4150   -5.1910 C.3    20  ILE20       0.0001
     31  C         -7.3180    4.1070   -3.9880 C.2    20  ILE20       0.2617
     32  O         -6.4020    3.3070   -4.2100 O.2    20  ILE20      -0.2715
     33  N         -8.6100    3.8210   -4.1620 N.am   21  TRP21      -0.1938
     34  CA        -9.2240    2.5950   -4.7020 C.3    21  TRP21       0.2021
     35  CB        -9.7020    1.6830   -3.5450 C.3    21  TRP21       0.0612
     36  CG       -10.4970    2.2370   -2.3850 C.ar   21  TRP21       0.0007
     37  CD1      -10.6860    1.5470   -1.2340 C.ar   21  TRP21       0.0946
     38  NE1      -11.3350    2.3340   -0.3040 N.ar   21  TRP21      -0.2442
     39  CE2      -11.5720    3.5950   -0.7990 C.ar   21  TRP21       0.0810
     40  CZ2      -12.0950    4.7480   -0.2000 C.ar   21  TRP21       0.0191
     41  CH2      -12.2340    5.9130   -0.9670 C.ar   21  TRP21       0.0015
     42  CZ3      -11.8800    5.8920   -2.3260 C.ar   21  TRP21       0.0001
     43  CE3      -11.3480    4.7280   -2.9100 C.ar   21  TRP21       0.0012
     44  CD2      -11.1270    3.5500   -2.1550 C.ar   21  TRP21       0.0152
     45  C        -10.3230    2.8760   -5.7330 C.2    21  TRP21       0.3845
     46  O        -11.0800    1.9620   -6.0950 O.co2  21  TRP21      -0.2437
     47  OXT      -10.4270    4.0430   -6.2080 O.co2  21  TRP21      -0.2437
@<TRIPOS>BOND
     1    47    45   ar
     2    46    45   ar
     3    28    27    1
     4    45    34    1
     5    30    29    1
     6    34    33    1
     7    34    35    1
     8    27    29    1
     9    27    26    1
    10    32    31    2
    11    33    31   am
    12    31    26    1
    13    35    36    1
    14    26    25    1
    15    43    42   ar
    16    43    44   ar
    17    36    44   ar
    18    36    37   ar
    19    42    41   ar
    20    25    23   am
    21    44    39   ar
    22    24    23    2
    23     6     4    1
    24    37    38   ar
    25    23    18    1
    26     8     7    2
    27     1     2    1
    28    41    40   ar
    29    39    38   ar
    30    39    40   ar
    31     2     7    1
    32     2     3    1
    33    20    19    1
    34     7     9   am
    35     4     3    1
    36     4     5    1
    37    19    18    1
    38    19    21    1
    39    18    17    1
    40    17    15   am
    41     9    10    1
    42    15    10    1
    43    15    16    2
    44    10    11    1
    45    21    22    1
    46    13    12   ar
    47    11    12    1
    48    12    14   ar
