@<TRIPOS>MOLECULE
01012527H
 86 88 0 0 0
SMALL
GASTEIGER

@<TRIPOS>ATOM
      1 C          -9.2243    3.2582   -4.1710 C.3     1  LIG11       0.0531
      2 C          -9.6587    2.5894   -2.8724 C.3     1  LIG11      -0.0111
      3 C          -7.7045    3.2172   -4.2554 C.3     1  LIG11       0.0375
      4 C          -9.8785    2.2989   -5.1592 C.2     1  LIG11       0.0509
      5 N          -8.3891    1.8774   -2.3538 N.4     1  LIG11       0.2448
      6 C         -10.1361    3.5259   -1.7382 C.3     1  LIG11      -0.0039
      7 C          -7.0732    4.5472   -3.8584 C.ar    1  LIG11      -0.0313
      8 C          -7.3077    2.0089   -3.4149 C.3     1  LIG11      -0.0234
      9 O          -9.2619    1.2141   -5.3421 O.co2   1  LIG11      -0.5493
     10 O         -11.0097    2.6646   -5.5666 O.co2   1  LIG11      -0.5493
     11 C          -8.6544    0.4208   -1.9785 C.3     1  LIG11       0.0465
     12 C         -11.5904    4.0934   -1.8055 C.3     1  LIG11      -0.0298
     13 C          -6.7935    5.4746   -4.8762 C.ar    1  LIG11      -0.0122
     14 C          -6.7714    4.9072   -2.5269 C.ar    1  LIG11      -0.0124
     15 C          -7.4584   -0.2113   -1.2517 C.2     1  LIG11       0.2608
     16 C         -11.9641    4.7185   -0.4203 C.3     1  LIG11      -0.0479
     17 C         -11.6839    5.2304   -2.8439 C.3     1  LIG11      -0.0596
     18 C         -12.6151    3.0099   -2.1850 C.3     1  LIG11      -0.0596
     19 C          -6.2160    6.6829   -4.5350 C.ar    1  LIG11       0.1702
     20 C          -6.2158    6.1563   -2.1954 C.ar    1  LIG11       0.1656
     21 N          -7.5210   -1.5563   -0.8958 N.am    1  LIG11      -0.2971
     22 O          -6.4787    0.4964   -0.9904 O.2     1  LIG11      -0.2697
     23 C         -12.1753    3.7274    0.7340 C.3     1  LIG11      -0.0554
     24 C          -5.9318    7.0243   -3.2318 C.ar    1  LIG11       0.2075
     25 O          -5.8653    7.6507   -5.4258 O.3     1  LIG11      -0.4525
     26 O          -6.0192    6.3429   -0.8573 O.3     1  LIG11      -0.4913
     27 C          -8.6984   -2.4166   -1.1146 C.3     1  LIG11       0.0148
     28 C          -6.2902   -2.1845   -0.3921 C.3     1  LIG11       0.0148
     29 C         -12.5274    4.4502    2.0265 C.3     1  LIG11      -0.0653
     30 O          -5.3611    8.2598   -3.1566 O.3     1  LIG11      -0.4489
     31 C          -5.2948    8.6335   -4.5459 C.3     1  LIG11       0.2334
     32 C          -5.6668    7.6562   -0.4369 C.3     1  LIG11       0.0790
     33 C          -9.1935   -3.0939    0.1646 C.3     1  LIG11      -0.0374
     34 C          -6.1426   -2.2199    1.1350 C.3     1  LIG11      -0.0374
     35 C         -10.5691   -3.7337   -0.0106 C.3     1  LIG11      -0.0545
     36 C          -6.2119   -0.8517    1.8114 C.3     1  LIG11      -0.0545
     37 C         -11.0055   -4.4461    1.2622 C.3     1  LIG11      -0.0652
     38 C          -6.0392   -0.9706    3.3179 C.3     1  LIG11      -0.0652
     39 H          -9.6205    4.2639   -4.3203 H       1  LIG11       0.0424
     40 H         -10.4070    1.7978   -2.9970 H       1  LIG11       0.0858
     41 H          -7.3712    3.0162   -5.2833 H       1  LIG11       0.0409
     42 H          -8.0220    2.3321   -1.5113 H       1  LIG11       0.2042
     43 H          -9.4358    4.3622   -1.6273 H       1  LIG11       0.0325
     44 H         -10.0497    2.9519   -0.8084 H       1  LIG11       0.0325
     45 H          -6.3428    2.1232   -2.9117 H       1  LIG11       0.0821
     46 H          -7.2856    1.0842   -3.9995 H       1  LIG11       0.0821
     47 H          -8.8880   -0.1237   -2.8974 H       1  LIG11       0.0913
     48 H          -9.5090    0.4329   -1.2950 H       1  LIG11       0.0913
     49 H          -7.0130    5.2583   -5.9186 H       1  LIG11       0.0658
     50 H          -6.9675    4.2279   -1.7046 H       1  LIG11       0.0658
     51 H         -12.8905    5.2993   -0.5297 H       1  LIG11       0.0270
     52 H         -11.1867    5.4399   -0.1341 H       1  LIG11       0.0270
     53 H         -11.6114    4.8573   -3.8684 H       1  LIG11       0.0235
     54 H         -10.8951    5.9753   -2.6910 H       1  LIG11       0.0235
     55 H         -12.6466    5.7511   -2.7749 H       1  LIG11       0.0235
     56 H         -12.5148    2.7067   -3.2320 H       1  LIG11       0.0235
     57 H         -13.6399    3.3765   -2.0571 H       1  LIG11       0.0235
     58 H         -12.4978    2.1111   -1.5709 H       1  LIG11       0.0235
     59 H         -11.2770    3.1284    0.9074 H       1  LIG11       0.0263
     60 H         -12.9897    3.0350    0.4967 H       1  LIG11       0.0263
     61 H          -8.4212   -3.1689   -1.8626 H       1  LIG11       0.0464
     62 H          -9.5157   -1.8325   -1.5429 H       1  LIG11       0.0464
     63 H          -5.4255   -1.6591   -0.8148 H       1  LIG11       0.0464
     64 H          -6.2464   -3.2056   -0.7889 H       1  LIG11       0.0464
     65 H         -11.7229    5.1275    2.3293 H       1  LIG11       0.0230
     66 H         -12.6842    3.7266    2.8327 H       1  LIG11       0.0230
     67 H         -13.4465    5.0340    1.9121 H       1  LIG11       0.0230
     68 H          -5.8291    9.5811   -4.6804 H       1  LIG11       0.1166
     69 H          -4.2434    8.7828   -4.8184 H       1  LIG11       0.1166
     70 H          -5.6802    7.6670    0.6577 H       1  LIG11       0.0660
     71 H          -6.3973    8.3975   -0.7789 H       1  LIG11       0.0660
     72 H          -4.6516    7.9101   -0.7549 H       1  LIG11       0.0660
     73 H          -9.2383   -2.3598    0.9782 H       1  LIG11       0.0280
     74 H          -8.4818   -3.8716    0.4625 H       1  LIG11       0.0280
     75 H          -5.1753   -2.6836    1.3672 H       1  LIG11       0.0280
     76 H          -6.9001   -2.8730    1.5775 H       1  LIG11       0.0280
     77 H         -10.5466   -4.4512   -0.8378 H       1  LIG11       0.0263
     78 H         -11.3086   -2.9647   -0.2634 H       1  LIG11       0.0263
     79 H          -7.1786   -0.3774    1.6109 H       1  LIG11       0.0263
     80 H          -5.4293   -0.1973    1.4117 H       1  LIG11       0.0263
     81 H         -10.3086   -5.2516    1.5181 H       1  LIG11       0.0230
     82 H         -11.9989   -4.8860    1.1312 H       1  LIG11       0.0230
     83 H         -11.0492   -3.7511    2.1064 H       1  LIG11       0.0230
     84 H          -6.8250   -1.5962    3.7536 H       1  LIG11       0.0230
     85 H          -6.0954    0.0180    3.7846 H       1  LIG11       0.0230
     86 H          -5.0695   -1.4113    3.5690 H       1  LIG11       0.0230
@<TRIPOS>BOND
     1     1     2    1
     2     1     3    1
     3     1     4    1
     4     2     5    1
     5     2     6    1
     6     3     8    1
     7     3     7    1
     8     4    10   ar
     9     4     9   ar
    10     5     8    1
    11     5    11    1
    12     6    12    1
    13     7    14   ar
    14     7    13   ar
    15    11    15    1
    16    12    18    1
    17    12    17    1
    18    12    16    1
    19    13    19   ar
    20    14    20   ar
    21    15    22    2
    22    15    21   am
    23    16    23    1
    24    19    25    1
    25    19    24   ar
    26    20    24   ar
    27    20    26    1
    28    21    28    1
    29    21    27    1
    30    23    29    1
    31    24    30    1
    32    25    31    1
    33    26    32    1
    34    27    33    1
    35    28    34    1
    36    30    31    1
    37    33    35    1
    38    34    36    1
    39    35    37    1
    40    36    38    1
    41     1    39    1
    42     2    40    1
    43     3    41    1
    44     5    42    1
    45     6    43    1
    46     6    44    1
    47     8    45    1
    48     8    46    1
    49    11    47    1
    50    11    48    1
    51    13    49    1
    52    14    50    1
    53    16    51    1
    54    16    52    1
    55    17    53    1
    56    17    54    1
    57    17    55    1
    58    18    56    1
    59    18    57    1
    60    18    58    1
    61    23    59    1
    62    23    60    1
    63    27    61    1
    64    27    62    1
    65    28    63    1
    66    28    64    1
    67    29    65    1
    68    29    66    1
    69    29    67    1
    70    31    68    1
    71    31    69    1
    72    32    70    1
    73    32    71    1
    74    32    72    1
    75    33    73    1
    76    33    74    1
    77    34    75    1
    78    34    76    1
    79    35    77    1
    80    35    78    1
    81    36    79    1
    82    36    80    1
    83    37    81    1
    84    37    82    1
    85    37    83    1
    86    38    84    1
    87    38    85    1
    88    38    86    1
@<TRIPOS>MOLECULE
../1EDN/3STEPMIN_17-21.pdb
 47 48 0 0 0
SMALL
GASTEIGER

@<TRIPOS>ATOM
      1  N         -5.4290    0.8830   -1.1740 N.3    17  LEU17      -0.1231
      2  CA        -6.8230    0.6710   -0.7980 C.3    17  LEU17       0.1693
      3  CB        -6.9230   -0.4370    0.2770 C.3    17  LEU17       0.0284
      4  CG        -6.4950   -1.8450   -0.1910 C.3    17  LEU17       0.0019
      5  CD1       -6.5150   -2.8060    0.9980 C.3    17  LEU17       0.0001
      6  CD2       -7.4310   -2.4140   -1.2600 C.3    17  LEU17       0.0001
      7  C         -7.3990    2.0370   -0.3760 C.2    17  LEU17       0.2592
      8  O         -7.4670    2.9330   -1.2040 O.2    17  LEU17      -0.2718
      9  N         -7.7380    2.2560    0.8970 N.am   18  ASP18      -0.1960
     10  CA        -8.5130    3.4280    1.3730 C.3    18  ASP18       0.1840
     11  CB        -9.0510    3.1310    2.7840 C.3    18  ASP18       0.1450
     12  CG       -10.5470    3.4340    2.8500 C.2    18  ASP18       0.3671
     13  OD1      -11.3300    2.4930    2.5610 O.co2  18  ASP18      -0.2456
     14  OD2      -10.9050    4.5930    3.1470 O.co2  18  ASP18      -0.2456
     15  C         -7.8270    4.8120    1.2910 C.2    18  ASP18       0.2622
     16  O         -8.3890    5.8210    1.7350 O.2    18  ASP18      -0.2715
     17  N         -6.6250    4.8510    0.7010 N.am   19  ILE19      -0.1963
     18  CA        -5.9180    6.0210    0.1680 C.3    19  ILE19       0.1727
     19  CB        -4.3960    5.7260    0.0740 C.3    19  ILE19       0.0290
     20  CG2       -3.6150    6.9530   -0.4300 C.3    19  ILE19       0.0023
     21  CG1       -3.7730    5.2100    1.3920 C.3    19  ILE19       0.0022
     22  CD1       -3.8620    6.1700    2.5820 C.3    19  ILE19       0.0001
     23  C         -6.4970    6.4050   -1.2110 C.2    19  ILE19       0.2616
     24  O         -7.0070    7.5130   -1.3720 O.2    19  ILE19      -0.2715
     25  N         -6.3950    5.4980   -2.1940 N.am   20  ILE20      -0.1963
     26  CA        -6.9990    5.5490   -3.5400 C.3    20  ILE20       0.1727
     27  CB        -6.0900    6.2460   -4.5940 C.3    20  ILE20       0.0290
     28  CG2       -6.7980    6.2490   -5.9680 C.3    20  ILE20       0.0023
     29  CG1       -5.7140    7.6970   -4.2070 C.3    20  ILE20       0.0022
     30  CD1       -4.7810    8.4150   -5.1910 C.3    20  ILE20       0.0001
     31  C         -7.3180    4.1070   -3.9880 C.2    20  ILE20       0.2617
     32  O         -6.4020    3.3070   -4.2100 O.2    20  ILE20      -0.2715
     33  N         -8.6100    3.8210   -4.1620 N.am   21  TRP21      -0.1938
     34  CA        -9.2240    2.5950   -4.7020 C.3    21  TRP21       0.2021
     35  CB        -9.7020    1.6830   -3.5450 C.3    21  TRP21       0.0612
     36  CG       -10.4970    2.2370   -2.3850 C.ar   21  TRP21       0.0007
     37  CD1      -10.6860    1.5470   -1.2340 C.ar   21  TRP21       0.0946
     38  NE1      -11.3350    2.3340   -0.3040 N.ar   21  TRP21      -0.2442
     39  CE2      -11.5720    3.5950   -0.7990 C.ar   21  TRP21       0.0810
     40  CZ2      -12.0950    4.7480   -0.2000 C.ar   21  TRP21       0.0191
     41  CH2      -12.2340    5.9130   -0.9670 C.ar   21  TRP21       0.0015
     42  CZ3      -11.8800    5.8920   -2.3260 C.ar   21  TRP21       0.0001
     43  CE3      -11.3480    4.7280   -2.9100 C.ar   21  TRP21       0.0012
     44  CD2      -11.1270    3.5500   -2.1550 C.ar   21  TRP21       0.0152
     45  C        -10.3230    2.8760   -5.7330 C.2    21  TRP21       0.3845
     46  O        -11.0800    1.9620   -6.0950 O.co2  21  TRP21      -0.2437
     47  OXT      -10.4270    4.0430   -6.2080 O.co2  21  TRP21      -0.2437
@<TRIPOS>BOND
     1    47    45   ar
     2    46    45   ar
     3    28    27    1
     4    45    34    1
     5    30    29    1
     6    34    33    1
     7    34    35    1
     8    27    29    1
     9    27    26    1
    10    32    31    2
    11    33    31   am
    12    31    26    1
    13    35    36    1
    14    26    25    1
    15    43    42   ar
    16    43    44   ar
    17    36    44   ar
    18    36    37   ar
    19    42    41   ar
    20    25    23   am
    21    44    39   ar
    22    24    23    2
    23     6     4    1
    24    37    38   ar
    25    23    18    1
    26     8     7    2
    27     1     2    1
    28    41    40   ar
    29    39    38   ar
    30    39    40   ar
    31     2     7    1
    32     2     3    1
    33    20    19    1
    34     7     9   am
    35     4     3    1
    36     4     5    1
    37    19    18    1
    38    19    21    1
    39    18    17    1
    40    17    15   am
    41     9    10    1
    42    15    10    1
    43    15    16    2
    44    10    11    1
    45    21    22    1
    46    13    12   ar
    47    11    12    1
    48    12    14   ar
