@<TRIPOS>MOLECULE
23693553
 97 99 0 0 0
SMALL
GASTEIGER

@<TRIPOS>ATOM
      1 O          -7.1074    2.7609    1.7555 O.2     1  LIG11      -0.2526
      2 O          -6.9665    2.1318   -1.6620 O.2     1  LIG11      -0.2731
      3 O          -9.7583    4.1144   -3.7592 O.2     1  LIG11      -0.2689
      4 O         -12.1190    0.6071   -2.6684 O.co2   1  LIG11      -0.5479
      5 OXT       -10.0380    0.7818   -3.6071 O.co2   1  LIG11      -0.5479
      6 O          -4.4872    9.2519   -4.1602 O.3     1  LIG11      -0.4515
      7 O          -4.9553    8.6027   -6.3284 O.2     1  LIG11      -0.2227
      8 N          -9.0711    3.3630    2.7854 N.am    1  LIG11      -0.2801
      9 N          -9.0512    1.9168    0.9341 N.am    1  LIG11      -0.2879
     10 N          -9.1749    2.6479   -2.0340 N.am    1  LIG11      -0.2273
     11 N          -8.2846    1.7722   -4.9972 N.4     1  LIG11       0.2276
     12 N          -5.7178    7.3689   -4.5527 N.ar    1  LIG11      -0.2526
     13 C         -10.5104    3.6739    2.6531 C.3     1  LIG11       0.0249
     14 C          -8.2817    3.9413    3.8967 C.3     1  LIG11       0.0249
     15 C         -10.9605    5.0165    3.2667 C.3     1  LIG11      -0.0344
     16 C          -8.9288    5.1282    4.6159 C.3     1  LIG11      -0.0344
     17 C          -9.8084    5.9179    3.6684 C.3     1  LIG11      -0.0497
     18 CA         -8.4657    1.0679   -0.1309 C.3     1  LIG11       0.1019
     19 C          -6.6820   -0.9538   -0.4338 C.3     1  LIG11      -0.0356
     20 C          -7.2397    0.2544    0.3829 C.3     1  LIG11      -0.0210
     21 C          -8.3310    2.6826    1.8123 C.2     1  LIG11       0.3033
     22 C         -11.4225    2.5526    3.1603 C.3     1  LIG11      -0.0464
     23 C          -7.8961    2.8612    4.9131 C.3     1  LIG11      -0.0464
     24 C          -8.1505    1.9739   -1.3421 C.2     1  LIG11       0.2429
     25 C          -7.7867   -1.9419   -0.8231 C.3     1  LIG11      -0.0600
     26 C          -5.6610   -1.6817    0.4742 C.3     1  LIG11      -0.0600
     27 C          -5.9255   -0.5283   -1.7041 C.3     1  LIG11      -0.0600
     28 CA        -10.6093    2.2838   -1.8215 C.3     1  LIG11       0.0730
     29 C         -11.6589    3.4190   -1.9432 C.3     1  LIG11      -0.0286
     30 C          -8.9421    3.3371   -3.2485 C.2     1  LIG11       0.2708
     31 CA         -7.7558    2.9099   -4.1367 C.3     1  LIG11       0.0579
     32 C         -11.2708    4.7332   -1.2469 C.3     1  LIG11      -0.0513
     33 C          -7.3157    4.0496   -5.0693 C.3     1  LIG11       0.0261
     34 C         -10.9827    1.1159   -2.8060 C.2     1  LIG11       0.0626
     35 C          -6.7060    5.3111   -4.4889 C.ar    1  LIG11      -0.0158
     36 C         -12.1876    5.9066   -1.6040 C.3     1  LIG11      -0.0558
     37 C          -6.5169    5.7933   -3.1469 C.ar    1  LIG11       0.0038
     38 C          -6.2277    6.3212   -5.3046 C.ar    1  LIG11       0.0202
     39 C          -5.9834    7.0915   -3.2124 C.ar    1  LIG11       0.0598
     40 C         -13.5706    5.7944   -0.9846 C.3     1  LIG11      -0.0653
     41 C          -6.7564    5.2865   -1.8520 C.ar    1  LIG11      -0.0523
     42 C          -5.7917    7.8700   -2.0463 C.ar    1  LIG11      -0.0371
     43 C          -6.5360    6.0329   -0.6937 C.ar    1  LIG11      -0.0611
     44 C          -5.0408    8.4689   -5.1186 C.2     1  LIG11       0.4196
     45 C          -6.0751    7.3266   -0.7934 C.ar    1  LIG11      -0.0598
     46 C          -3.6858   10.3313   -4.6362 C.3     1  LIG11       0.0835
     47 H          -9.9953    1.6967    1.1932 H       1  LIG11       0.1510
     48 H1         -7.5861    1.1688   -5.4274 H       1  LIG11       0.2002
     49 H2         -8.8939    1.1489   -4.3854 H       1  LIG11       0.2002
     50 H3         -8.9874    2.0934   -5.6722 H       1  LIG11       0.2002
     51 H         -10.6867    3.7568    1.5794 H       1  LIG11       0.0498
     52 H          -7.3484    4.3237    3.4621 H       1  LIG11       0.0498
     53 H         -11.6172    5.5427    2.5633 H       1  LIG11       0.0283
     54 H         -11.5759    4.8334    4.1586 H       1  LIG11       0.0283
     55 H          -9.5283    4.7850    5.4693 H       1  LIG11       0.0283
     56 H          -8.1464    5.7742    5.0329 H       1  LIG11       0.0283
     57 H          -9.2438    6.2496    2.7896 H       1  LIG11       0.0266
     58 H         -10.1924    6.8128    4.1705 H       1  LIG11       0.0266
     59 HA         -9.2472    0.3598   -0.4196 H       1  LIG11       0.0595
     60 H          -6.3922    0.9315    0.5453 H       1  LIG11       0.0293
     61 H          -7.5115   -0.1244    1.3792 H       1  LIG11       0.0293
     62 H         -11.3219    2.4197    4.2414 H       1  LIG11       0.0248
     63 H         -12.4695    2.7932    2.9387 H       1  LIG11       0.0248
     64 H         -11.2099    1.5873    2.6961 H       1  LIG11       0.0248
     65 H          -8.7857    2.4245    5.3798 H       1  LIG11       0.0248
     66 H          -7.3395    2.0460    4.4395 H       1  LIG11       0.0248
     67 H          -7.2659    3.2803    5.7051 H       1  LIG11       0.0248
     68 H          -8.4856   -1.4996   -1.5406 H       1  LIG11       0.0235
     69 H          -7.3618   -2.8360   -1.2949 H       1  LIG11       0.0235
     70 H          -8.3552   -2.2662    0.0544 H       1  LIG11       0.0235
     71 H          -4.8543   -1.0048    0.7809 H       1  LIG11       0.0235
     72 H          -6.1384   -2.0646    1.3829 H       1  LIG11       0.0235
     73 H          -5.1996   -2.5322   -0.0405 H       1  LIG11       0.0235
     74 H          -5.1845    0.2492   -1.4854 H       1  LIG11       0.0235
     75 H          -5.3797   -1.3735   -2.1410 H       1  LIG11       0.0235
     76 H          -6.6039   -0.1614   -2.4797 H       1  LIG11       0.0235
     77 HA        -10.7366    1.8712   -0.8215 H       1  LIG11       0.0567
     78 H         -11.9046    3.6056   -2.9955 H       1  LIG11       0.0287
     79 H         -12.5990    3.0600   -1.5026 H       1  LIG11       0.0287
     80 HA         -6.8778    2.5087   -3.6522 H       1  LIG11       0.0952
     81 H         -11.2807    4.5918   -0.1665 H       1  LIG11       0.0266
     82 H         -10.2498    5.0278   -1.5067 H       1  LIG11       0.0266
     83 H          -6.5779    3.6345   -5.7721 H       1  LIG11       0.0374
     84 H          -8.1663    4.3605   -5.6937 H       1  LIG11       0.0374
     85 H         -11.7233    6.8327   -1.2426 H       1  LIG11       0.0263
     86 H         -12.2742    6.0024   -2.6926 H       1  LIG11       0.0263
     87 H          -6.1782    6.3810   -6.3856 H       1  LIG11       0.0818
     88 H         -13.5041    5.7081    0.1048 H       1  LIG11       0.0230
     89 H         -14.1590    6.6883   -1.2156 H       1  LIG11       0.0230
     90 H         -14.1128    4.9261   -1.3692 H       1  LIG11       0.0230
     91 H          -7.1133    4.2905   -1.7009 H       1  LIG11       0.0624
     92 H          -5.4264    8.8903   -2.0914 H       1  LIG11       0.0638
     93 H          -6.7339    5.5851    0.2785 H       1  LIG11       0.0618
     94 H          -5.9196    7.9181    0.1041 H       1  LIG11       0.0618
     95 H          -2.9378   10.5527   -3.8696 H       1  LIG11       0.0661
     96 H          -3.1593   10.0839   -5.5628 H       1  LIG11       0.0661
     97 H          -4.3162   11.2134   -4.7755 H       1  LIG11       0.0661
@<TRIPOS>BOND
     1     1    21    2
     2     2    24    2
     3     3    30    2
     4     4    34   ar
     5     5    34   ar
     6     6    44    1
     7     6    46    1
     8     7    44    2
     9     8    13    1
    10     8    14    1
    11     9    21   am
    12    10    24   am
    13    10    30   am
    14    12    39   ar
    15    12    38   ar
    16    12    44   am
    17    13    15    1
    18    13    22    1
    19    14    16    1
    20    14    23    1
    21    15    17    1
    22    16    17    1
    23    18     9    1
    24    18    24    1
    25    18    20    1
    26    19    20    1
    27    19    27    1
    28    19    26    1
    29    19    25    1
    30    21     8   am
    31    28    34    1
    32    28    29    1
    33    28    10    1
    34    29    32    1
    35    31    33    1
    36    31    11    1
    37    31    30    1
    38    32    36    1
    39    33    35    1
    40    35    38   ar
    41    35    37   ar
    42    36    40    1
    43    37    39   ar
    44    37    41   ar
    45    39    42   ar
    46    41    43   ar
    47    42    45   ar
    48    43    45   ar
    49     9    47    1
    50    11    48    1
    51    11    49    1
    52    11    50    1
    53    13    51    1
    54    14    52    1
    55    15    53    1
    56    15    54    1
    57    16    55    1
    58    16    56    1
    59    17    57    1
    60    17    58    1
    61    18    59    1
    62    20    60    1
    63    20    61    1
    64    22    62    1
    65    22    63    1
    66    22    64    1
    67    23    65    1
    68    23    66    1
    69    23    67    1
    70    25    68    1
    71    25    69    1
    72    25    70    1
    73    26    71    1
    74    26    72    1
    75    26    73    1
    76    27    74    1
    77    27    75    1
    78    27    76    1
    79    28    77    1
    80    29    78    1
    81    29    79    1
    82    31    80    1
    83    32    81    1
    84    32    82    1
    85    33    83    1
    86    33    84    1
    87    36    85    1
    88    36    86    1
    89    38    87    1
    90    40    88    1
    91    40    89    1
    92    40    90    1
    93    41    91    1
    94    42    92    1
    95    43    93    1
    96    45    94    1
    97    46    95    1
    98    46    96    1
    99    46    97    1
@<TRIPOS>MOLECULE
../1EDN/3STEPMIN_17-21.pdb
 47 48 0 0 0
SMALL
GASTEIGER

@<TRIPOS>ATOM
      1  N         -5.4290    0.8830   -1.1740 N.3    17  LEU17      -0.1231
      2  CA        -6.8230    0.6710   -0.7980 C.3    17  LEU17       0.1693
      3  CB        -6.9230   -0.4370    0.2770 C.3    17  LEU17       0.0284
      4  CG        -6.4950   -1.8450   -0.1910 C.3    17  LEU17       0.0019
      5  CD1       -6.5150   -2.8060    0.9980 C.3    17  LEU17       0.0001
      6  CD2       -7.4310   -2.4140   -1.2600 C.3    17  LEU17       0.0001
      7  C         -7.3990    2.0370   -0.3760 C.2    17  LEU17       0.2592
      8  O         -7.4670    2.9330   -1.2040 O.2    17  LEU17      -0.2718
      9  N         -7.7380    2.2560    0.8970 N.am   18  ASP18      -0.1960
     10  CA        -8.5130    3.4280    1.3730 C.3    18  ASP18       0.1840
     11  CB        -9.0510    3.1310    2.7840 C.3    18  ASP18       0.1450
     12  CG       -10.5470    3.4340    2.8500 C.2    18  ASP18       0.3671
     13  OD1      -11.3300    2.4930    2.5610 O.co2  18  ASP18      -0.2456
     14  OD2      -10.9050    4.5930    3.1470 O.co2  18  ASP18      -0.2456
     15  C         -7.8270    4.8120    1.2910 C.2    18  ASP18       0.2622
     16  O         -8.3890    5.8210    1.7350 O.2    18  ASP18      -0.2715
     17  N         -6.6250    4.8510    0.7010 N.am   19  ILE19      -0.1963
     18  CA        -5.9180    6.0210    0.1680 C.3    19  ILE19       0.1727
     19  CB        -4.3960    5.7260    0.0740 C.3    19  ILE19       0.0290
     20  CG2       -3.6150    6.9530   -0.4300 C.3    19  ILE19       0.0023
     21  CG1       -3.7730    5.2100    1.3920 C.3    19  ILE19       0.0022
     22  CD1       -3.8620    6.1700    2.5820 C.3    19  ILE19       0.0001
     23  C         -6.4970    6.4050   -1.2110 C.2    19  ILE19       0.2616
     24  O         -7.0070    7.5130   -1.3720 O.2    19  ILE19      -0.2715
     25  N         -6.3950    5.4980   -2.1940 N.am   20  ILE20      -0.1963
     26  CA        -6.9990    5.5490   -3.5400 C.3    20  ILE20       0.1727
     27  CB        -6.0900    6.2460   -4.5940 C.3    20  ILE20       0.0290
     28  CG2       -6.7980    6.2490   -5.9680 C.3    20  ILE20       0.0023
     29  CG1       -5.7140    7.6970   -4.2070 C.3    20  ILE20       0.0022
     30  CD1       -4.7810    8.4150   -5.1910 C.3    20  ILE20       0.0001
     31  C         -7.3180    4.1070   -3.9880 C.2    20  ILE20       0.2617
     32  O         -6.4020    3.3070   -4.2100 O.2    20  ILE20      -0.2715
     33  N         -8.6100    3.8210   -4.1620 N.am   21  TRP21      -0.1938
     34  CA        -9.2240    2.5950   -4.7020 C.3    21  TRP21       0.2021
     35  CB        -9.7020    1.6830   -3.5450 C.3    21  TRP21       0.0612
     36  CG       -10.4970    2.2370   -2.3850 C.ar   21  TRP21       0.0007
     37  CD1      -10.6860    1.5470   -1.2340 C.ar   21  TRP21       0.0946
     38  NE1      -11.3350    2.3340   -0.3040 N.ar   21  TRP21      -0.2442
     39  CE2      -11.5720    3.5950   -0.7990 C.ar   21  TRP21       0.0810
     40  CZ2      -12.0950    4.7480   -0.2000 C.ar   21  TRP21       0.0191
     41  CH2      -12.2340    5.9130   -0.9670 C.ar   21  TRP21       0.0015
     42  CZ3      -11.8800    5.8920   -2.3260 C.ar   21  TRP21       0.0001
     43  CE3      -11.3480    4.7280   -2.9100 C.ar   21  TRP21       0.0012
     44  CD2      -11.1270    3.5500   -2.1550 C.ar   21  TRP21       0.0152
     45  C        -10.3230    2.8760   -5.7330 C.2    21  TRP21       0.3845
     46  O        -11.0800    1.9620   -6.0950 O.co2  21  TRP21      -0.2437
     47  OXT      -10.4270    4.0430   -6.2080 O.co2  21  TRP21      -0.2437
@<TRIPOS>BOND
     1    47    45   ar
     2    46    45   ar
     3    28    27    1
     4    45    34    1
     5    30    29    1
     6    34    33    1
     7    34    35    1
     8    27    29    1
     9    27    26    1
    10    32    31    2
    11    33    31   am
    12    31    26    1
    13    35    36    1
    14    26    25    1
    15    43    42   ar
    16    43    44   ar
    17    36    44   ar
    18    36    37   ar
    19    42    41   ar
    20    25    23   am
    21    44    39   ar
    22    24    23    2
    23     6     4    1
    24    37    38   ar
    25    23    18    1
    26     8     7    2
    27     1     2    1
    28    41    40   ar
    29    39    38   ar
    30    39    40   ar
    31     2     7    1
    32     2     3    1
    33    20    19    1
    34     7     9   am
    35     4     3    1
    36     4     5    1
    37    19    18    1
    38    19    21    1
    39    18    17    1
    40    17    15   am
    41     9    10    1
    42    15    10    1
    43    15    16    2
    44    10    11    1
    45    21    22    1
    46    13    12   ar
    47    11    12    1
    48    12    14   ar
