@<TRIPOS>MOLECULE
9911482
 51 53 0 0 0
SMALL
GASTEIGER

@<TRIPOS>ATOM
      1 S          -5.4720    4.7709   -3.3126 S.O2    1  LIG11       0.0758
      2 S          -3.4629    4.9916    0.4591 S.2     1  LIG11      -0.0902
      3 O          -8.1336    2.8558   -4.7515 O.2     1  LIG11      -0.3377
      4 O          -5.7168    6.1417   -3.7084 O.2     1  LIG11      -0.1499
      5 O          -4.6713    3.8855   -4.1289 O.2     1  LIG11      -0.1499
      6 O          -7.1387    4.5937   -0.3591 O.2     1  LIG11      -0.2692
      7 O          -6.6112    1.8259   -1.3510 O.2     1  LIG11      -0.2923
      8 N          -5.8548    3.1923    0.9425 N.am    1  LIG11      -0.2802
      9 N          -6.9102    3.9857   -2.9620 N.pl3   1  LIG11      -0.1831
     10 N          -9.0683    3.1602   -5.7240 N.ar    1  LIG11      -0.0810
     11 C          -6.9632    2.5402    1.5175 C.ar    1  LIG11       0.0471
     12 C          -4.4730    4.9720   -1.9020 C.ar    1  LIG11       0.1277
     13 C          -7.2333    2.7624    2.8851 C.ar    1  LIG11      -0.0283
     14 C          -7.7668    1.6476    0.7647 C.ar    1  LIG11       0.0388
     15 C          -4.7920    4.6730   -0.5917 C.ar    1  LIG11       0.1007
     16 C          -9.1609    1.2729    2.7422 C.ar    1  LIG11      -0.0494
     17 C          -8.3267    2.1130    3.4813 C.ar    1  LIG11      -0.0541
     18 C          -8.8731    1.0443    1.3912 C.ar    1  LIG11      -0.0466
     19 C          -6.0330    4.1710   -0.0312 C.2     1  LIG11       0.2568
     20 C          -7.8246    3.9767   -4.0459 C.ar    1  LIG11       0.2399
     21 C          -3.1354    5.4788   -2.0294 C.ar    1  LIG11      -0.0273
     22 C          -8.6166    5.0196   -4.4756 C.ar    1  LIG11       0.0350
     23 C          -6.4242    3.6877    3.7563 C.3     1  LIG11      -0.0379
     24 C          -7.4111    1.2134   -0.6422 C.2     1  LIG11       0.1619
     25 C          -9.3504    4.4573   -5.5565 C.ar    1  LIG11       0.0854
     26 C          -2.4807    5.5409   -0.8220 C.ar    1  LIG11      -0.0217
     27 C         -10.3343    0.5925    3.3856 C.3     1  LIG11      -0.0397
     28 C          -8.7308    6.3947   -3.9358 C.3     1  LIG11      -0.0330
     29 C         -10.3486    5.1237   -6.4263 C.3     1  LIG11      -0.0188
     30 C          -8.0409   -0.0499   -1.1816 C.3     1  LIG11      -0.0013
     31 H          -5.0255    3.3237    1.5066 H       1  LIG11       0.1552
     32 H          -6.7064    3.0313   -2.6304 H       1  LIG11       0.1768
     33 H          -8.5404    2.2865    4.5358 H       1  LIG11       0.0623
     34 H          -9.5289    0.3725    0.8429 H       1  LIG11       0.0628
     35 H          -2.6847    5.7729   -2.9712 H       1  LIG11       0.0643
     36 H          -5.8123    4.3882    3.1828 H       1  LIG11       0.0278
     37 H          -7.0903    4.3004    4.3748 H       1  LIG11       0.0278
     38 H          -5.7687    3.1050    4.4109 H       1  LIG11       0.0278
     39 H          -1.4704    5.8798   -0.6344 H       1  LIG11       0.0694
     40 H         -10.4933    0.9475    4.4091 H       1  LIG11       0.0278
     41 H         -11.2483    0.7961    2.8182 H       1  LIG11       0.0278
     42 H         -10.1666   -0.4885    3.4232 H       1  LIG11       0.0278
     43 H          -8.2910    6.4796   -2.9376 H       1  LIG11       0.0280
     44 H          -8.2351    7.1102   -4.5989 H       1  LIG11       0.0280
     45 H          -9.7837    6.6847   -3.8491 H       1  LIG11       0.0280
     46 H         -10.6391    4.4881   -7.2690 H       1  LIG11       0.0294
     47 H         -11.2503    5.3641   -5.8543 H       1  LIG11       0.0294
     48 H          -9.9407    6.0546   -6.8333 H       1  LIG11       0.0294
     49 H          -7.5027   -0.3597   -2.0847 H       1  LIG11       0.0309
     50 H          -7.9511   -0.8655   -0.4587 H       1  LIG11       0.0309
     51 H          -9.0846    0.1298   -1.4475 H       1  LIG11       0.0309
@<TRIPOS>BOND
     1     1     4    2
     2     1     5    2
     3     1     9    1
     4     1    12    1
     5     2    15   ar
     6     2    26   ar
     7     3    10   ar
     8     3    20   ar
     9     6    19    2
    10     7    24    2
    11     8    11    1
    12     8    19   am
    13     9    20    1
    14    10    25   ar
    15    11    13   ar
    16    11    14   ar
    17    12    15   ar
    18    12    21   ar
    19    13    17   ar
    20    13    23    1
    21    14    18   ar
    22    14    24    1
    23    15    19    1
    24    16    17   ar
    25    16    18   ar
    26    16    27    1
    27    20    22   ar
    28    21    26   ar
    29    22    25   ar
    30    22    28    1
    31    24    30    1
    32    25    29    1
    33     8    31    1
    34     9    32    1
    35    17    33    1
    36    18    34    1
    37    21    35    1
    38    23    36    1
    39    23    37    1
    40    23    38    1
    41    26    39    1
    42    27    40    1
    43    27    41    1
    44    27    42    1
    45    28    43    1
    46    28    44    1
    47    28    45    1
    48    29    46    1
    49    29    47    1
    50    29    48    1
    51    30    49    1
    52    30    50    1
    53    30    51    1
@<TRIPOS>MOLECULE
../1EDN/PCA1_17-21.pdb
 47 48 0 0 0
SMALL
GASTEIGER

@<TRIPOS>ATOM
      1  N         -4.6470   -0.3680   -1.6750 N.3    17  LEU17      -0.1231
      2  CA        -5.8920   -0.8550   -2.2480 C.3    17  LEU17       0.1693
      3  CB        -6.0770   -2.3450   -1.7480 C.3    17  LEU17       0.0284
      4  CG        -7.4170   -3.0590   -2.1890 C.3    17  LEU17       0.0019
      5  CD1       -7.4920   -3.1930   -3.7220 C.3    17  LEU17       0.0001
      6  CD2       -7.5340   -4.4610   -1.6100 C.3    17  LEU17       0.0001
      7  C         -7.0080    0.1010   -1.8270 C.2    17  LEU17       0.2592
      8  O         -7.6220    0.6590   -2.7680 O.2    17  LEU17      -0.2718
      9  N         -7.2890    0.1920   -0.5460 N.am   18  ASP18      -0.1960
     10  CA        -8.2730    1.1070    0.1120 C.3    18  ASP18       0.1840
     11  CB        -8.8290    0.4520    1.4200 C.3    18  ASP18       0.1450
     12  CG        -9.9140    1.2760    2.0640 C.2    18  ASP18       0.3671
     13  OD1      -10.8560    1.7240    1.3430 O.co2  18  ASP18      -0.2456
     14  OD2       -9.7710    1.5960    3.2830 O.co2  18  ASP18      -0.2456
     15  C         -7.6270    2.4530    0.4740 C.2    18  ASP18       0.2622
     16  O         -8.0770    3.4620   -0.0480 O.2    18  ASP18      -0.2715
     17  N         -6.6010    2.4770    1.3340 N.am   19  ILE19      -0.1963
     18  CA        -6.1660    3.6270    2.0790 C.3    19  ILE19       0.1727
     19  CB        -5.0730    3.3500    3.1520 C.3    19  ILE19       0.0290
     20  CG2       -4.5850    4.5470    3.9530 C.3    19  ILE19       0.0023
     21  CG1       -5.6210    2.1420    3.9730 C.3    19  ILE19       0.0022
     22  CD1       -6.7460    2.5740    4.8760 C.3    19  ILE19       0.0001
     23  C         -5.6740    4.7260    1.1170 C.2    19  ILE19       0.2616
     24  O         -5.9640    5.8590    1.4260 O.2    19  ILE19      -0.2715
     25  N         -4.8940    4.3400    0.1060 N.am   20  ILE20      -0.1963
     26  CA        -4.3700    5.1770   -0.9560 C.3    20  ILE20       0.1727
     27  CB        -2.8480    5.4620   -0.8180 C.3    20  ILE20       0.0290
     28  CG2       -2.5210    6.1670    0.5290 C.3    20  ILE20       0.0023
     29  CG1       -1.9270    4.2500   -0.9510 C.3    20  ILE20       0.0022
     30  CD1       -0.4520    4.4090   -1.0350 C.3    20  ILE20       0.0001
     31  C         -4.8260    4.7960   -2.3980 C.2    20  ILE20       0.2617
     32  O         -4.8210    3.6210   -2.7490 O.2    20  ILE20      -0.2715
     33  N         -5.1950    5.7710   -3.1960 N.am   21  TRP21      -0.1941
     34  CA        -5.6960    5.8160   -4.5740 C.3    21  TRP21       0.1982
     35  CB        -7.1930    6.0870   -4.6010 C.3    21  TRP21       0.0394
     36  CG        -8.1480    4.9210   -4.3560 C.3    21  TRP21       0.0475
     37  CD1       -8.4270    4.3170   -3.1580 C.3    21  TRP21       0.1166
     38  NE1       -9.4680    3.4340   -3.3480 N.pl3  21  TRP21      -0.2376
     39  CE2      -10.0400    3.5420   -4.5600 C.ar   21  TRP21       0.0614
     40  CZ2      -11.2420    2.9770   -5.0990 C.ar   21  TRP21       0.0158
     41  CH2      -11.3060    3.0240   -6.5170 C.ar   21  TRP21       0.0013
     42  CZ3      -10.3640    3.7270   -7.2650 C.ar   21  TRP21      -0.0002
     43  CE3       -9.2810    4.3830   -6.7050 C.ar   21  TRP21      -0.0030
     44  CD2       -9.0950    4.3440   -5.3390 C.ar   21  TRP21      -0.0059
     45  C         -4.8510    6.8160   -5.3910 C.2    21  TRP21       0.3842
     46  O         -5.0400    8.0490   -5.1500 O.co2  21  TRP21      -0.2437
     47  OXT       -3.9720    6.3760   -6.1010 O.co2  21  TRP21      -0.2437
@<TRIPOS>BOND
     1    42    43   ar
     2    42    41   ar
     3    43    44   ar
     4    41    40   ar
     5    47    45   ar
     6    45    46   ar
     7    45    34    1
     8    44    39   ar
     9    44    36    1
    10    40    39   ar
    11    35    34    1
    12    35    36    1
    13    34    33    1
    14    39    38    1
    15    36    37    1
    16     5     4    1
    17    38    37    1
    18    33    31   am
    19     8     7    2
    20    32    31    2
    21    31    26    1
    22     2     7    1
    23     2     3    1
    24     2     1    1
    25     4     3    1
    26     4     6    1
    27     7     9   am
    28    30    29    1
    29    26    27    1
    30    26    25    1
    31    29    27    1
    32    27    28    1
    33     9    10    1
    34    16    15    2
    35    25    23   am
    36    10    15    1
    37    10    11    1
    38    15    17   am
    39    23    24    2
    40    23    18    1
    41    17    18    1
    42    13    12   ar
    43    11    12    1
    44    12    14   ar
    45    18    19    1
    46    19    20    1
    47    19    21    1
    48    21    22    1
