@<TRIPOS>MOLECULE
01479498K
 57 61 0 0 0
SMALL
GASTEIGER

@<TRIPOS>ATOM
      1 C          -4.9728    3.4759   -2.1897 C.3     1  LIG11       0.1526
      2 C          -4.9521    4.0406   -0.7984 C.2     1  LIG11       0.0278
      3 C          -5.8412    4.2773   -3.1703 C.ar    1  LIG11       0.0009
      4 O          -5.3179    2.0644   -2.2503 O.3     1  LIG11      -0.4789
      5 C          -5.6148    3.4945    0.2378 C.2     1  LIG11       0.0016
      6 C          -4.0237    5.2414   -0.6519 C.2     1  LIG11       0.0721
      7 C          -7.1676    3.9157   -3.4717 C.ar    1  LIG11      -0.0091
      8 C          -5.3047    5.4435   -3.7746 C.ar    1  LIG11      -0.0511
      9 C          -6.2055    1.6310   -1.3037 C.ar    1  LIG11       0.1298
     10 C          -6.4278    2.3070   -0.1035 C.ar    1  LIG11       0.0283
     11 C          -5.5008    4.0429    1.6054 C.ar    1  LIG11      -0.0165
     12 O          -2.7958    4.9736   -0.7886 O.co2   1  LIG11      -0.5448
     13 O          -4.5929    6.3588   -0.5095 O.co2   1  LIG11      -0.5448
     14 C          -7.8849    4.6990   -4.3518 C.ar    1  LIG11       0.1666
     15 C          -6.0569    6.2225   -4.6624 C.ar    1  LIG11      -0.0158
     16 C          -6.9193    0.4728   -1.6087 C.ar    1  LIG11      -0.0158
     17 C          -7.4270    1.8334    0.7632 C.ar    1  LIG11      -0.0087
     18 C          -4.6656    3.4163    2.5366 C.ar    1  LIG11      -0.0505
     19 C          -6.2878    5.1226    2.0131 C.ar    1  LIG11      -0.0505
     20 C          -7.3448    5.8205   -4.9329 C.ar    1  LIG11       0.1662
     21 O          -9.1699    4.4770   -4.7430 O.3     1  LIG11      -0.4526
     22 C          -7.9198    0.0276   -0.7451 C.ar    1  LIG11      -0.0164
     23 C          -8.2065    0.7298    0.4271 C.ar    1  LIG11       0.1217
     24 C          -4.6437    3.8394    3.8699 C.ar    1  LIG11      -0.0194
     25 C          -6.2677    5.5415    3.3461 C.ar    1  LIG11      -0.0194
     26 O          -8.2213    6.4487   -5.7626 O.3     1  LIG11      -0.4526
     27 C          -9.3821    5.6081   -5.6088 C.3     1  LIG11       0.2332
     28 O          -9.2374    0.2261    1.1634 O.3     1  LIG11      -0.4893
     29 C          -5.4624    4.8914    4.2850 C.ar    1  LIG11       0.1201
     30 C         -10.0632    1.0746    1.9745 C.3     1  LIG11       0.0946
     31 O          -5.5632    5.3735    5.5629 O.3     1  LIG11      -0.4951
     32 C         -10.4802    2.4061    1.3478 C.3     1  LIG11      -0.0281
     33 C          -9.5256    1.2031    3.3962 C.3     1  LIG11      -0.0281
     34 C          -4.8664    4.6502    6.5684 C.3     1  LIG11       0.0788
     35 H          -3.9514    3.4891   -2.5919 H       1  LIG11       0.0837
     36 H          -7.6404    3.0501   -3.0272 H       1  LIG11       0.0659
     37 H          -4.2926    5.7625   -3.5204 H       1  LIG11       0.0623
     38 H          -5.6406    7.1203   -5.1021 H       1  LIG11       0.0655
     39 H          -6.7213   -0.0539   -2.5373 H       1  LIG11       0.0655
     40 H          -7.5894    2.3592    1.6944 H       1  LIG11       0.0661
     41 H          -4.0296    2.5928    2.2201 H       1  LIG11       0.0625
     42 H          -6.9092    5.6427    1.2873 H       1  LIG11       0.0625
     43 H          -8.4991   -0.8547   -1.0027 H       1  LIG11       0.0655
     44 H          -3.9749    3.3265    4.5509 H       1  LIG11       0.0654
     45 H          -6.8848    6.3824    3.6487 H       1  LIG11       0.0654
     46 H          -9.6792    5.2388   -6.5971 H       1  LIG11       0.1166
     47 H         -10.2017    6.2117   -5.2017 H       1  LIG11       0.1166
     48 H         -10.9953    0.5014    2.0657 H       1  LIG11       0.0727
     49 H          -9.6823    3.1530    1.3768 H       1  LIG11       0.0265
     50 H         -10.7699    2.2717    0.3006 H       1  LIG11       0.0265
     51 H         -11.3307    2.8327    1.8906 H       1  LIG11       0.0265
     52 H          -8.5951    1.7721    3.4455 H       1  LIG11       0.0265
     53 H         -10.2552    1.6991    4.0445 H       1  LIG11       0.0265
     54 H          -9.3101    0.2121    3.8102 H       1  LIG11       0.0265
     55 H          -5.1087    5.1036    7.5344 H       1  LIG11       0.0660
     56 H          -5.1911    3.6046    6.6045 H       1  LIG11       0.0660
     57 H          -3.7834    4.7242    6.4278 H       1  LIG11       0.0660
@<TRIPOS>BOND
     1     1     4    1
     2     1     2    1
     3     1     3    1
     4     2     5    2
     5     2     6    1
     6     3     8   ar
     7     3     7   ar
     8     4     9    1
     9     5    10    1
    10     5    11    1
    11     6    13   ar
    12     6    12   ar
    13     7    14   ar
    14     8    15   ar
    15     9    16   ar
    16     9    10   ar
    17    10    17   ar
    18    11    18   ar
    19    11    19   ar
    20    14    21    1
    21    14    20   ar
    22    15    20   ar
    23    16    22   ar
    24    17    23   ar
    25    18    24   ar
    26    19    25   ar
    27    20    26    1
    28    21    27    1
    29    22    23   ar
    30    23    28    1
    31    24    29   ar
    32    25    29   ar
    33    26    27    1
    34    28    30    1
    35    29    31    1
    36    30    33    1
    37    30    32    1
    38    31    34    1
    39     1    35    1
    40     7    36    1
    41     8    37    1
    42    15    38    1
    43    16    39    1
    44    17    40    1
    45    18    41    1
    46    19    42    1
    47    22    43    1
    48    24    44    1
    49    25    45    1
    50    27    46    1
    51    27    47    1
    52    30    48    1
    53    32    49    1
    54    32    50    1
    55    32    51    1
    56    33    52    1
    57    33    53    1
    58    33    54    1
    59    34    55    1
    60    34    56    1
    61    34    57    1
@<TRIPOS>MOLECULE
../1EDN/PCA1_17-21.pdb
 47 48 0 0 0
SMALL
GASTEIGER

@<TRIPOS>ATOM
      1  N         -4.6470   -0.3680   -1.6750 N.3    17  LEU17      -0.1231
      2  CA        -5.8920   -0.8550   -2.2480 C.3    17  LEU17       0.1693
      3  CB        -6.0770   -2.3450   -1.7480 C.3    17  LEU17       0.0284
      4  CG        -7.4170   -3.0590   -2.1890 C.3    17  LEU17       0.0019
      5  CD1       -7.4920   -3.1930   -3.7220 C.3    17  LEU17       0.0001
      6  CD2       -7.5340   -4.4610   -1.6100 C.3    17  LEU17       0.0001
      7  C         -7.0080    0.1010   -1.8270 C.2    17  LEU17       0.2592
      8  O         -7.6220    0.6590   -2.7680 O.2    17  LEU17      -0.2718
      9  N         -7.2890    0.1920   -0.5460 N.am   18  ASP18      -0.1960
     10  CA        -8.2730    1.1070    0.1120 C.3    18  ASP18       0.1840
     11  CB        -8.8290    0.4520    1.4200 C.3    18  ASP18       0.1450
     12  CG        -9.9140    1.2760    2.0640 C.2    18  ASP18       0.3671
     13  OD1      -10.8560    1.7240    1.3430 O.co2  18  ASP18      -0.2456
     14  OD2       -9.7710    1.5960    3.2830 O.co2  18  ASP18      -0.2456
     15  C         -7.6270    2.4530    0.4740 C.2    18  ASP18       0.2622
     16  O         -8.0770    3.4620   -0.0480 O.2    18  ASP18      -0.2715
     17  N         -6.6010    2.4770    1.3340 N.am   19  ILE19      -0.1963
     18  CA        -6.1660    3.6270    2.0790 C.3    19  ILE19       0.1727
     19  CB        -5.0730    3.3500    3.1520 C.3    19  ILE19       0.0290
     20  CG2       -4.5850    4.5470    3.9530 C.3    19  ILE19       0.0023
     21  CG1       -5.6210    2.1420    3.9730 C.3    19  ILE19       0.0022
     22  CD1       -6.7460    2.5740    4.8760 C.3    19  ILE19       0.0001
     23  C         -5.6740    4.7260    1.1170 C.2    19  ILE19       0.2616
     24  O         -5.9640    5.8590    1.4260 O.2    19  ILE19      -0.2715
     25  N         -4.8940    4.3400    0.1060 N.am   20  ILE20      -0.1963
     26  CA        -4.3700    5.1770   -0.9560 C.3    20  ILE20       0.1727
     27  CB        -2.8480    5.4620   -0.8180 C.3    20  ILE20       0.0290
     28  CG2       -2.5210    6.1670    0.5290 C.3    20  ILE20       0.0023
     29  CG1       -1.9270    4.2500   -0.9510 C.3    20  ILE20       0.0022
     30  CD1       -0.4520    4.4090   -1.0350 C.3    20  ILE20       0.0001
     31  C         -4.8260    4.7960   -2.3980 C.2    20  ILE20       0.2617
     32  O         -4.8210    3.6210   -2.7490 O.2    20  ILE20      -0.2715
     33  N         -5.1950    5.7710   -3.1960 N.am   21  TRP21      -0.1941
     34  CA        -5.6960    5.8160   -4.5740 C.3    21  TRP21       0.1982
     35  CB        -7.1930    6.0870   -4.6010 C.3    21  TRP21       0.0394
     36  CG        -8.1480    4.9210   -4.3560 C.3    21  TRP21       0.0475
     37  CD1       -8.4270    4.3170   -3.1580 C.3    21  TRP21       0.1166
     38  NE1       -9.4680    3.4340   -3.3480 N.pl3  21  TRP21      -0.2376
     39  CE2      -10.0400    3.5420   -4.5600 C.ar   21  TRP21       0.0614
     40  CZ2      -11.2420    2.9770   -5.0990 C.ar   21  TRP21       0.0158
     41  CH2      -11.3060    3.0240   -6.5170 C.ar   21  TRP21       0.0013
     42  CZ3      -10.3640    3.7270   -7.2650 C.ar   21  TRP21      -0.0002
     43  CE3       -9.2810    4.3830   -6.7050 C.ar   21  TRP21      -0.0030
     44  CD2       -9.0950    4.3440   -5.3390 C.ar   21  TRP21      -0.0059
     45  C         -4.8510    6.8160   -5.3910 C.2    21  TRP21       0.3842
     46  O         -5.0400    8.0490   -5.1500 O.co2  21  TRP21      -0.2437
     47  OXT       -3.9720    6.3760   -6.1010 O.co2  21  TRP21      -0.2437
@<TRIPOS>BOND
     1    42    43   ar
     2    42    41   ar
     3    43    44   ar
     4    41    40   ar
     5    47    45   ar
     6    45    46   ar
     7    45    34    1
     8    44    39   ar
     9    44    36    1
    10    40    39   ar
    11    35    34    1
    12    35    36    1
    13    34    33    1
    14    39    38    1
    15    36    37    1
    16     5     4    1
    17    38    37    1
    18    33    31   am
    19     8     7    2
    20    32    31    2
    21    31    26    1
    22     2     7    1
    23     2     3    1
    24     2     1    1
    25     4     3    1
    26     4     6    1
    27     7     9   am
    28    30    29    1
    29    26    27    1
    30    26    25    1
    31    29    27    1
    32    27    28    1
    33     9    10    1
    34    16    15    2
    35    25    23   am
    36    10    15    1
    37    10    11    1
    38    15    17   am
    39    23    24    2
    40    23    18    1
    41    17    18    1
    42    13    12   ar
    43    11    12    1
    44    12    14   ar
    45    18    19    1
    46    19    20    1
    47    19    21    1
    48    21    22    1
