@<TRIPOS>MOLECULE
16004692
 52 54 0 0 0
SMALL
GASTEIGER

@<TRIPOS>ATOM
      1 BR         -8.5326   -0.4343    1.2152 Br      1  LIG11      -0.0503
      2 BR         -6.6784    3.1705    4.3313 Br      1  LIG11      -0.0472
      3 S          -9.8268    2.9035   -4.8895 S.O2    1  LIG11       0.1104
      4 O          -5.0210    4.4104   -1.9509 O.3     1  LIG11      -0.4724
      5 O          -8.6023    2.3648   -5.4256 O.2     1  LIG11      -0.1381
      6 O         -10.8632    2.0568   -4.3489 O.2     1  LIG11      -0.1381
      7 O          -3.1465    5.5434    0.1839 O.3     1  LIG11      -0.4590
      8 N         -10.5441    3.9343   -5.9823 N.3     1  LIG11      -0.1771
      9 N          -9.4943    4.0108   -3.6801 N.pl3   1  LIG11      -0.1889
     10 N          -7.9707    5.4941   -4.5936 N.ar    1  LIG11      -0.2186
     11 N          -5.7449    5.7183   -3.7652 N.ar    1  LIG11      -0.2008
     12 N          -4.8116    5.7879    1.7326 N.ar    1  LIG11      -0.2022
     13 N          -3.9302    3.6180    1.2711 N.ar    1  LIG11      -0.2022
     14 C          -9.9932    4.0079   -7.3381 C.3     1  LIG11       0.0185
     15 C          -7.2121    4.0747   -2.7734 C.ar    1  LIG11       0.0848
     16 C          -8.1674    4.5319   -3.6768 C.ar    1  LIG11       0.1532
     17 C         -11.0829    4.4929   -8.2948 C.3     1  LIG11      -0.0416
     18 C          -7.4696    2.9978   -1.8099 C.ar    1  LIG11      -0.0094
     19 C          -6.0040    4.7480   -2.8652 C.ar    1  LIG11       0.2276
     20 C         -12.2240    3.4920   -8.4361 C.3     1  LIG11      -0.0641
     21 C          -7.5438    1.6600   -2.2356 C.ar    1  LIG11      -0.0527
     22 C          -7.6974    3.2816   -0.4546 C.ar    1  LIG11      -0.0527
     23 C          -3.7937    5.1278   -2.1184 C.3     1  LIG11       0.1252
     24 C          -7.8629    0.6371   -1.3396 C.ar    1  LIG11      -0.0472
     25 C          -8.0164    2.2593    0.4435 C.ar    1  LIG11      -0.0472
     26 C          -6.7478    6.0347   -4.5930 C.ar    1  LIG11       0.1219
     27 C          -2.8434    4.7640   -0.9766 C.3     1  LIG11       0.1267
     28 C          -8.0987    0.9428   -0.0032 C.ar    1  LIG11       0.0179
     29 C          -4.0194    4.9407    1.0561 C.ar    1  LIG11       0.3180
     30 C          -5.5878    5.2378    2.6896 C.ar    1  LIG11       0.0483
     31 C          -4.7336    3.1209    2.2364 C.ar    1  LIG11       0.0483
     32 C          -5.5876    3.8953    2.9871 C.ar    1  LIG11       0.0543
     33 H         -10.7531    4.8317   -5.5475 H       1  LIG11       0.1493
     34 H          -9.7424    3.5581   -2.8002 H       1  LIG11       0.1763
     35 H          -9.6350    3.0297   -7.6748 H       1  LIG11       0.0442
     36 H          -9.1556    4.7128   -7.3464 H       1  LIG11       0.0442
     37 H         -10.6388    4.6598   -9.2829 H       1  LIG11       0.0275
     38 H         -11.4873    5.4535   -7.9543 H       1  LIG11       0.0275
     39 H         -11.8531    2.5178   -8.7705 H       1  LIG11       0.0230
     40 H         -12.9513    3.8488   -9.1722 H       1  LIG11       0.0230
     41 H         -12.7516    3.3504   -7.4873 H       1  LIG11       0.0230
     42 H          -7.3583    1.4000   -3.2779 H       1  LIG11       0.0624
     43 H          -7.6321    4.3054   -0.0892 H       1  LIG11       0.0624
     44 H          -3.9755    6.2096   -2.1028 H       1  LIG11       0.0731
     45 H          -3.3374    4.8304   -3.0698 H       1  LIG11       0.0731
     46 H          -7.9289   -0.3870   -1.6988 H       1  LIG11       0.0629
     47 H          -8.2053    2.4999    1.4854 H       1  LIG11       0.0629
     48 H          -6.5513    6.8100   -5.3263 H       1  LIG11       0.1049
     49 H          -2.8247    3.6843   -0.7904 H       1  LIG11       0.0732
     50 H          -1.8274    5.0535   -1.2675 H       1  LIG11       0.0732
     51 H          -6.2195    5.9414    3.2241 H       1  LIG11       0.0843
     52 H          -4.6548    2.0484    2.3891 H       1  LIG11       0.0843
@<TRIPOS>BOND
     1     1    28    1
     2     2    32    1
     3     3     5    2
     4     3     6    2
     5     3     8    1
     6     3     9    1
     7     4    19    1
     8     4    23    1
     9     7    27    1
    10     7    29    1
    11     8    14    1
    12     9    16    1
    13    10    16   ar
    14    10    26   ar
    15    11    19   ar
    16    11    26   ar
    17    12    29   ar
    18    12    30   ar
    19    13    29   ar
    20    13    31   ar
    21    14    17    1
    22    15    16   ar
    23    15    18    1
    24    15    19   ar
    25    17    20    1
    26    18    21   ar
    27    18    22   ar
    28    21    24   ar
    29    22    25   ar
    30    23    27    1
    31    24    28   ar
    32    25    28   ar
    33    30    32   ar
    34    31    32   ar
    35     8    33    1
    36     9    34    1
    37    14    35    1
    38    14    36    1
    39    17    37    1
    40    17    38    1
    41    20    39    1
    42    20    40    1
    43    20    41    1
    44    21    42    1
    45    22    43    1
    46    23    44    1
    47    23    45    1
    48    24    46    1
    49    25    47    1
    50    26    48    1
    51    27    49    1
    52    27    50    1
    53    30    51    1
    54    31    52    1
@<TRIPOS>MOLECULE
../1EDN/PCA1_17-21.pdb
 47 48 0 0 0
SMALL
GASTEIGER

@<TRIPOS>ATOM
      1  N         -4.6470   -0.3680   -1.6750 N.3    17  LEU17      -0.1231
      2  CA        -5.8920   -0.8550   -2.2480 C.3    17  LEU17       0.1693
      3  CB        -6.0770   -2.3450   -1.7480 C.3    17  LEU17       0.0284
      4  CG        -7.4170   -3.0590   -2.1890 C.3    17  LEU17       0.0019
      5  CD1       -7.4920   -3.1930   -3.7220 C.3    17  LEU17       0.0001
      6  CD2       -7.5340   -4.4610   -1.6100 C.3    17  LEU17       0.0001
      7  C         -7.0080    0.1010   -1.8270 C.2    17  LEU17       0.2592
      8  O         -7.6220    0.6590   -2.7680 O.2    17  LEU17      -0.2718
      9  N         -7.2890    0.1920   -0.5460 N.am   18  ASP18      -0.1960
     10  CA        -8.2730    1.1070    0.1120 C.3    18  ASP18       0.1840
     11  CB        -8.8290    0.4520    1.4200 C.3    18  ASP18       0.1450
     12  CG        -9.9140    1.2760    2.0640 C.2    18  ASP18       0.3671
     13  OD1      -10.8560    1.7240    1.3430 O.co2  18  ASP18      -0.2456
     14  OD2       -9.7710    1.5960    3.2830 O.co2  18  ASP18      -0.2456
     15  C         -7.6270    2.4530    0.4740 C.2    18  ASP18       0.2622
     16  O         -8.0770    3.4620   -0.0480 O.2    18  ASP18      -0.2715
     17  N         -6.6010    2.4770    1.3340 N.am   19  ILE19      -0.1963
     18  CA        -6.1660    3.6270    2.0790 C.3    19  ILE19       0.1727
     19  CB        -5.0730    3.3500    3.1520 C.3    19  ILE19       0.0290
     20  CG2       -4.5850    4.5470    3.9530 C.3    19  ILE19       0.0023
     21  CG1       -5.6210    2.1420    3.9730 C.3    19  ILE19       0.0022
     22  CD1       -6.7460    2.5740    4.8760 C.3    19  ILE19       0.0001
     23  C         -5.6740    4.7260    1.1170 C.2    19  ILE19       0.2616
     24  O         -5.9640    5.8590    1.4260 O.2    19  ILE19      -0.2715
     25  N         -4.8940    4.3400    0.1060 N.am   20  ILE20      -0.1963
     26  CA        -4.3700    5.1770   -0.9560 C.3    20  ILE20       0.1727
     27  CB        -2.8480    5.4620   -0.8180 C.3    20  ILE20       0.0290
     28  CG2       -2.5210    6.1670    0.5290 C.3    20  ILE20       0.0023
     29  CG1       -1.9270    4.2500   -0.9510 C.3    20  ILE20       0.0022
     30  CD1       -0.4520    4.4090   -1.0350 C.3    20  ILE20       0.0001
     31  C         -4.8260    4.7960   -2.3980 C.2    20  ILE20       0.2617
     32  O         -4.8210    3.6210   -2.7490 O.2    20  ILE20      -0.2715
     33  N         -5.1950    5.7710   -3.1960 N.am   21  TRP21      -0.1941
     34  CA        -5.6960    5.8160   -4.5740 C.3    21  TRP21       0.1982
     35  CB        -7.1930    6.0870   -4.6010 C.3    21  TRP21       0.0394
     36  CG        -8.1480    4.9210   -4.3560 C.3    21  TRP21       0.0475
     37  CD1       -8.4270    4.3170   -3.1580 C.3    21  TRP21       0.1166
     38  NE1       -9.4680    3.4340   -3.3480 N.pl3  21  TRP21      -0.2376
     39  CE2      -10.0400    3.5420   -4.5600 C.ar   21  TRP21       0.0614
     40  CZ2      -11.2420    2.9770   -5.0990 C.ar   21  TRP21       0.0158
     41  CH2      -11.3060    3.0240   -6.5170 C.ar   21  TRP21       0.0013
     42  CZ3      -10.3640    3.7270   -7.2650 C.ar   21  TRP21      -0.0002
     43  CE3       -9.2810    4.3830   -6.7050 C.ar   21  TRP21      -0.0030
     44  CD2       -9.0950    4.3440   -5.3390 C.ar   21  TRP21      -0.0059
     45  C         -4.8510    6.8160   -5.3910 C.2    21  TRP21       0.3842
     46  O         -5.0400    8.0490   -5.1500 O.co2  21  TRP21      -0.2437
     47  OXT       -3.9720    6.3760   -6.1010 O.co2  21  TRP21      -0.2437
@<TRIPOS>BOND
     1    42    43   ar
     2    42    41   ar
     3    43    44   ar
     4    41    40   ar
     5    47    45   ar
     6    45    46   ar
     7    45    34    1
     8    44    39   ar
     9    44    36    1
    10    40    39   ar
    11    35    34    1
    12    35    36    1
    13    34    33    1
    14    39    38    1
    15    36    37    1
    16     5     4    1
    17    38    37    1
    18    33    31   am
    19     8     7    2
    20    32    31    2
    21    31    26    1
    22     2     7    1
    23     2     3    1
    24     2     1    1
    25     4     3    1
    26     4     6    1
    27     7     9   am
    28    30    29    1
    29    26    27    1
    30    26    25    1
    31    29    27    1
    32    27    28    1
    33     9    10    1
    34    16    15    2
    35    25    23   am
    36    10    15    1
    37    10    11    1
    38    15    17   am
    39    23    24    2
    40    23    18    1
    41    17    18    1
    42    13    12   ar
    43    11    12    1
    44    12    14   ar
    45    18    19    1
    46    19    20    1
    47    19    21    1
    48    21    22    1
