@<TRIPOS>MOLECULE
178103
 66 70 0 0 0
SMALL
GASTEIGER

@<TRIPOS>ATOM
      1 O          -6.4047    6.9852   -5.0608 O.co2   1  LIG11      -0.5495
      2 O          -4.8398    5.8806   -6.2848 O.co2   1  LIG11      -0.5495
      3 O          -9.8131    2.2485   -0.5958 O.3     1  LIG11      -0.4920
      4 O          -5.2600    2.3752   -2.3215 O.3     1  LIG11      -0.4893
      5 O          -6.0801   -0.4309   -7.0781 O.3     1  LIG11      -0.4526
      6 O          -6.0165    0.3510   -9.3621 O.3     1  LIG11      -0.4526
      7 O          -1.9171    4.4647    0.3563 O.3     1  LIG11      -0.4950
      8 O          -6.0764   -1.0332   -1.2859 O.3     1  LIG11      -0.3917
      9 C          -6.0459    4.6675   -4.6596 C.3     1  LIG11       0.0203
     10 C          -6.3847    4.9191   -3.1769 C.3     1  LIG11       0.0218
     11 C          -7.3159    4.0913   -5.3285 C.3     1  LIG11       0.0184
     12 C          -7.5590    3.9979   -2.9399 C.ar    1  LIG11      -0.0320
     13 C          -8.0873    3.5373   -4.1472 C.ar    1  LIG11      -0.0353
     14 C          -5.1796    4.7462   -2.2566 C.ar    1  LIG11       0.0025
     15 C          -6.9811    3.0800   -6.4197 C.ar    1  LIG11      -0.0356
     16 C          -5.7328    5.9668   -5.3953 C.2     1  LIG11       0.0466
     17 C          -8.1350    3.6498   -1.7215 C.ar    1  LIG11      -0.0159
     18 C          -9.2127    2.7248   -4.1549 C.ar    1  LIG11      -0.0542
     19 C          -4.6677    3.5072   -1.8270 C.ar    1  LIG11       0.1278
     20 C          -9.2162    2.7678   -1.7151 C.ar    1  LIG11       0.1208
     21 C          -6.6781    1.7367   -6.1333 C.ar    1  LIG11      -0.0124
     22 C          -9.7627    2.3287   -2.9319 C.ar    1  LIG11      -0.0196
     23 C          -6.9166    3.5253   -7.7625 C.ar    1  LIG11      -0.0543
     24 C          -4.5305    5.9207   -1.8314 C.ar    1  LIG11      -0.0510
     25 C          -6.3754    0.8940   -7.1825 C.ar    1  LIG11       0.1665
     26 C          -6.5980    2.6508   -8.8067 C.ar    1  LIG11      -0.0159
     27 C          -3.5659    3.4733   -0.9605 C.ar    1  LIG11       0.0221
     28 C          -3.4380    5.8763   -0.9620 C.ar    1  LIG11      -0.0194
     29 C          -6.3401    1.3382   -8.4835 C.ar    1  LIG11       0.1662
     30 C          -2.9633    4.6505   -0.5081 C.ar    1  LIG11       0.1236
     31 C          -9.1561    2.4964    0.6480 C.3     1  LIG11       0.0893
     32 C          -5.8251   -0.7554   -8.4589 C.3     1  LIG11       0.2332
     33 C          -5.1385    1.1884   -1.5413 C.3     1  LIG11       0.1126
     34 C          -9.6917    1.5307    1.7029 C.3     1  LIG11      -0.0215
     35 C          -6.1701    0.1788   -2.0308 C.3     1  LIG11       0.0783
     36 C          -1.3870    5.6341    0.9665 C.3     1  LIG11       0.0788
     37 C         -11.1960    1.6352    1.8977 C.3     1  LIG11      -0.0622
     38 H          -6.7688   -1.6168   -1.6408 H       1  LIG11       0.2095
     39 H          -5.1956    3.9774   -4.7559 H       1  LIG11       0.0379
     40 H          -6.7913    5.9252   -3.0099 H       1  LIG11       0.0405
     41 H          -7.9461    4.8808   -5.7619 H       1  LIG11       0.0404
     42 H          -7.7054    4.0546   -0.8135 H       1  LIG11       0.0657
     43 H          -9.6448    2.3859   -5.0910 H       1  LIG11       0.0622
     44 H          -6.6689    1.3673   -5.1145 H       1  LIG11       0.0658
     45 H         -10.6215    1.6634   -2.9230 H       1  LIG11       0.0654
     46 H          -7.0823    4.5801   -7.9851 H       1  LIG11       0.0622
     47 H          -4.8776    6.8879   -2.1974 H       1  LIG11       0.0623
     48 H          -6.5359    3.0047   -9.8283 H       1  LIG11       0.0655
     49 H          -3.1421    2.5310   -0.6309 H       1  LIG11       0.0691
     50 H          -2.9795    6.8168   -0.6786 H       1  LIG11       0.0654
     51 H          -9.3414    3.5322    0.9569 H       1  LIG11       0.0696
     52 H          -8.0757    2.3238    0.5661 H       1  LIG11       0.0696
     53 H          -6.4989   -1.5675   -8.7561 H       1  LIG11       0.1166
     54 H          -4.7915   -1.1095   -8.5512 H       1  LIG11       0.1166
     55 H          -5.3157    1.3884   -0.4765 H       1  LIG11       0.0720
     56 H          -4.1353    0.7609   -1.6556 H       1  LIG11       0.0720
     57 H          -9.1869    1.7226    2.6558 H       1  LIG11       0.0295
     58 H          -9.4543    0.5034    1.4047 H       1  LIG11       0.0295
     59 H          -7.1813    0.5795   -1.9186 H       1  LIG11       0.0591
     60 H          -6.0163   -0.0436   -3.0914 H       1  LIG11       0.0591
     61 H          -0.6335    5.3178    1.6946 H       1  LIG11       0.0660
     62 H          -2.1612    6.1859    1.5109 H       1  LIG11       0.0660
     63 H          -0.8901    6.2720    0.2284 H       1  LIG11       0.0660
     64 H         -11.4876    2.6527    2.1774 H       1  LIG11       0.0231
     65 H         -11.5194    0.9569    2.6947 H       1  LIG11       0.0231
     66 H         -11.7359    1.3590    0.9855 H       1  LIG11       0.0231
@<TRIPOS>BOND
     1     1    16   ar
     2     2    16   ar
     3     3    20    1
     4     3    31    1
     5     4    19    1
     6     4    33    1
     7     5    25    1
     8     5    32    1
     9     6    29    1
    10     6    32    1
    11     7    30    1
    12     7    36    1
    13     8    35    1
    14     9    10    1
    15     9    11    1
    16     9    16    1
    17    10    12    1
    18    10    14    1
    19    11    13    1
    20    11    15    1
    21    12    13   ar
    22    12    17   ar
    23    13    18   ar
    24    14    19   ar
    25    14    24   ar
    26    15    21   ar
    27    15    23   ar
    28    17    20   ar
    29    18    22   ar
    30    19    27   ar
    31    20    22   ar
    32    21    25   ar
    33    23    26   ar
    34    24    28   ar
    35    25    29   ar
    36    26    29   ar
    37    27    30   ar
    38    28    30   ar
    39    31    34    1
    40    33    35    1
    41    34    37    1
    42     8    38    1
    43     9    39    1
    44    10    40    1
    45    11    41    1
    46    17    42    1
    47    18    43    1
    48    21    44    1
    49    22    45    1
    50    23    46    1
    51    24    47    1
    52    26    48    1
    53    27    49    1
    54    28    50    1
    55    31    51    1
    56    31    52    1
    57    32    53    1
    58    32    54    1
    59    33    55    1
    60    33    56    1
    61    34    57    1
    62    34    58    1
    63    35    59    1
    64    35    60    1
    65    36    61    1
    66    36    62    1
    67    36    63    1
    68    37    64    1
    69    37    65    1
    70    37    66    1
@<TRIPOS>MOLECULE
../1EDN/PCA2_17-21.pdb
 47 48 0 0 0
SMALL
GASTEIGER

@<TRIPOS>ATOM
      1  N         -4.4680    0.3970   -1.5420 N.3    17  LEU17      -0.1231
      2  CA        -5.5730   -0.5090   -1.8150 C.3    17  LEU17       0.1693
      3  CB        -5.9860   -1.2020   -0.4580 C.3    17  LEU17       0.0284
      4  CG        -7.1280   -2.2100   -0.5390 C.3    17  LEU17       0.0019
      5  CD1       -6.7120   -3.3620   -1.4700 C.3    17  LEU17       0.0001
      6  CD2       -7.4980   -2.5610    0.9130 C.3    17  LEU17       0.0001
      7  C         -6.7000    0.2280   -2.5610 C.2    17  LEU17       0.2592
      8  O         -7.1860   -0.2780   -3.5510 O.2    17  LEU17      -0.2718
      9  N         -7.2650    1.2690   -1.9650 N.am   18  ASP18      -0.1960
     10  CA        -8.5260    1.8930   -2.2590 C.3    18  ASP18       0.1840
     11  CB        -9.6810    1.0560   -1.6740 C.3    18  ASP18       0.1450
     12  CG       -11.0010    1.6360   -2.1090 C.2    18  ASP18       0.3671
     13  OD1      -11.5960    2.3310   -1.2790 O.co2  18  ASP18      -0.2456
     14  OD2      -11.5460    1.2700   -3.1630 O.co2  18  ASP18      -0.2456
     15  C         -8.5570    3.3770   -1.7380 C.2    18  ASP18       0.2622
     16  O         -8.6960    4.2620   -2.5680 O.2    18  ASP18      -0.2715
     17  N         -8.4180    3.5730   -0.4160 N.am   19  ILE19      -0.1963
     18  CA        -8.3980    4.9040    0.1930 C.3    19  ILE19       0.1727
     19  CB        -8.4260    4.8620    1.7600 C.3    19  ILE19       0.0290
     20  CG2       -7.7310    6.0060    2.5190 C.3    19  ILE19       0.0023
     21  CG1       -9.9240    4.5740    2.2500 C.3    19  ILE19       0.0022
     22  CD1      -10.9740    5.6950    2.0110 C.3    19  ILE19       0.0001
     23  C         -7.1570    5.7010   -0.3260 C.2    19  ILE19       0.2616
     24  O         -7.3050    6.7970   -0.9200 O.2    19  ILE19      -0.2715
     25  N         -5.9900    5.0720   -0.2260 N.am   20  ILE20      -0.1963
     26  CA        -4.7520    5.3490   -0.9430 C.3    20  ILE20       0.1727
     27  CB        -3.5230    4.9310   -0.1080 C.3    20  ILE20       0.0290
     28  CG2       -2.1210    5.5060   -0.7390 C.3    20  ILE20       0.0023
     29  CG1       -3.5940    5.4760    1.3470 C.3    20  ILE20       0.0022
     30  CD1       -2.3570    5.1940    2.2260 C.3    20  ILE20       0.0001
     31  C         -4.7590    4.7050   -2.3650 C.2    20  ILE20       0.2617
     32  O         -4.2060    3.6200   -2.5900 O.2    20  ILE20      -0.2715
     33  N         -5.4060    5.3330   -3.3880 N.am   21  TRP21      -0.1938
     34  CA        -5.3950    4.7680   -4.7850 C.3    21  TRP21       0.2021
     35  CB        -6.6210    3.8650   -5.0310 C.3    21  TRP21       0.0612
     36  CG        -6.7890    3.3770   -6.4480 C.ar   21  TRP21       0.0007
     37  CD1       -7.1340    4.1960   -7.4760 C.ar   21  TRP21       0.0946
     38  NE1       -7.1740    3.4060   -8.6160 N.ar   21  TRP21      -0.2442
     39  CE2       -6.9360    2.0750   -8.3350 C.ar   21  TRP21       0.0810
     40  CZ2       -6.8300    1.0510   -9.2060 C.ar   21  TRP21       0.0191
     41  CH2       -6.3330   -0.2010   -8.7710 C.ar   21  TRP21       0.0015
     42  CZ3       -5.9560   -0.2520   -7.3640 C.ar   21  TRP21       0.0001
     43  CE3       -6.0150    0.8940   -6.5860 C.ar   21  TRP21       0.0012
     44  CD2       -6.6320    2.0560   -6.9830 C.ar   21  TRP21       0.0152
     45  C         -5.1960    5.8550   -5.8260 C.2    21  TRP21       0.3845
     46  O         -4.1840    5.6720   -6.5070 O.co2  21  TRP21      -0.2437
     47  OXT       -5.9640    6.8330   -6.0170 O.co2  21  TRP21      -0.2437
@<TRIPOS>BOND
     1    40    41   ar
     2    40    39   ar
     3    41    42   ar
     4    38    39   ar
     5    38    37   ar
     6    39    44   ar
     7    37    36   ar
     8    42    43   ar
     9    44    43   ar
    10    44    36   ar
    11    46    45   ar
    12    36    35    1
    13    47    45   ar
    14    45    34    1
    15    35    34    1
    16    34    33    1
    17     8     7    2
    18    33    31   am
    19    14    12   ar
    20    32    31    2
    21    16    15    2
    22     7     9   am
    23     7     2    1
    24    31    26    1
    25    10     9    1
    26    10    15    1
    27    10    11    1
    28    12    11    1
    29    12    13   ar
    30     2     1    1
    31     2     3    1
    32    15    17   am
    33     5     4    1
    34    26    25    1
    35    26    27    1
    36    24    23    2
    37    28    27    1
    38     4     3    1
    39     4     6    1
    40    17    18    1
    41    23    25   am
    42    23    18    1
    43    27    29    1
    44    18    19    1
    45    29    30    1
    46    19    21    1
    47    19    20    1
    48    22    21    1
