@<TRIPOS>MOLECULE
9957262
 56 59 0 0 0
SMALL
GASTEIGER

@<TRIPOS>ATOM
      1 S          -4.8231    5.1899   -2.4436 S.O2    1  LIG11       0.0668
      2 O          -7.8531    5.2265   -0.6871 O.3     1  LIG11      -0.4435
      3 O          -9.9307    3.4033   -1.4341 O.3     1  LIG11      -0.4771
      4 O          -3.4323    5.5653   -2.2904 O.2     1  LIG11      -0.1505
      5 O          -5.8203    6.2389   -2.5485 O.2     1  LIG11      -0.1505
      6 O          -8.1525    3.8523    1.7394 O.3     1  LIG11      -0.4914
      7 N          -5.2177    4.3166   -1.0412 N.pl3   1  LIG11      -0.1968
      8 N          -6.0148    2.2216   -1.5415 N.ar    1  LIG11      -0.2044
      9 N          -8.3290    1.7218   -1.7319 N.ar    1  LIG11      -0.1867
     10 N          -5.4147   -0.4716   -1.8437 N.ar    1  LIG11      -0.2331
     11 N          -7.6851   -0.8952   -2.4466 N.ar    1  LIG11      -0.2331
     12 C          -6.3557    3.4682   -1.1840 C.ar    1  LIG11       0.1883
     13 C          -7.6497    3.9274   -1.0590 C.ar    1  LIG11       0.2307
     14 C          -8.6113    2.9967   -1.3949 C.ar    1  LIG11       0.2639
     15 C          -8.8695    5.5045    0.2016 C.ar    1  LIG11       0.1702
     16 C          -4.9513    4.1114   -3.8002 C.2     1  LIG11       0.0729
     17 C          -7.0279    1.3626   -1.7669 C.ar    1  LIG11       0.2027
     18 C          -9.0588    4.8297    1.4204 C.ar    1  LIG11       0.1621
     19 C          -5.9848    4.2400   -4.6491 C.2     1  LIG11      -0.0353
     20 C          -6.2496    3.3833   -5.8138 C.ar    1  LIG11      -0.0237
     21 C          -9.6975    6.5730   -0.1581 C.ar    1  LIG11      -0.0157
     22 C          -6.6924   -0.0654   -2.0447 C.ar    1  LIG11       0.1978
     23 C         -10.1237    5.2161    2.2419 C.ar    1  LIG11      -0.0163
     24 C         -10.7530    6.9471    0.6688 C.ar    1  LIG11      -0.0581
     25 C         -10.9696    6.2647    1.8633 C.ar    1  LIG11      -0.0581
     26 C          -5.7944    2.0626   -5.9111 C.ar    1  LIG11      -0.0546
     27 C          -7.0553    3.8924   -6.8440 C.ar    1  LIG11      -0.0546
     28 C          -6.1187    1.2789   -7.0231 C.ar    1  LIG11      -0.0612
     29 C          -7.3815    3.1085   -7.9533 C.ar    1  LIG11      -0.0612
     30 C          -6.9104    1.8018   -8.0436 C.ar    1  LIG11      -0.0617
     31 C         -10.8471    2.3566   -1.7346 C.3     1  LIG11       0.0805
     32 C          -8.5030    2.9676    2.7969 C.3     1  LIG11       0.0790
     33 C          -5.1490   -1.7745   -2.0464 C.ar    1  LIG11       0.0315
     34 C          -7.3566   -2.1849   -2.6447 C.ar    1  LIG11       0.0315
     35 C          -6.0922   -2.6863   -2.4518 C.ar    1  LIG11      -0.0254
     36 H          -5.3796    5.0113   -0.3105 H       1  LIG11       0.1753
     37 H          -4.1823    3.3586   -3.8853 H       1  LIG11       0.0838
     38 H          -6.7113    5.0385   -4.4995 H       1  LIG11       0.0637
     39 H          -9.5217    7.1031   -1.0908 H       1  LIG11       0.0655
     40 H         -10.3155    4.7329    3.1942 H       1  LIG11       0.0655
     41 H         -11.4026    7.7703    0.3824 H       1  LIG11       0.0619
     42 H         -11.7929    6.5569    2.5108 H       1  LIG11       0.0619
     43 H          -5.1953    1.6161   -5.1214 H       1  LIG11       0.0623
     44 H          -7.4394    4.9096   -6.7940 H       1  LIG11       0.0623
     45 H          -5.7584    0.2558   -7.0868 H       1  LIG11       0.0618
     46 H          -8.0059    3.5191   -8.7430 H       1  LIG11       0.0618
     47 H          -7.1659    1.1899   -8.9045 H       1  LIG11       0.0618
     48 H         -11.8557    2.7802   -1.7078 H       1  LIG11       0.0660
     49 H         -10.8006    1.5603   -0.9836 H       1  LIG11       0.0660
     50 H         -10.6791    1.9602   -2.7419 H       1  LIG11       0.0660
     51 H          -7.7570    2.1676    2.8242 H       1  LIG11       0.0660
     52 H          -9.4806    2.5046    2.6238 H       1  LIG11       0.0660
     53 H          -8.4740    3.4824    3.7626 H       1  LIG11       0.0660
     54 H          -4.1208   -2.0719   -1.8603 H       1  LIG11       0.0831
     55 H          -8.1712   -2.8254   -2.9696 H       1  LIG11       0.0831
     56 H          -5.8553   -3.7294   -2.6072 H       1  LIG11       0.0648
@<TRIPOS>BOND
     1     1     4    2
     2     1     5    2
     3     1     7    1
     4     1    16    1
     5     2    13    1
     6     2    15    1
     7     3    14    1
     8     3    31    1
     9     6    18    1
    10     6    32    1
    11     7    12    1
    12     8    12   ar
    13     8    17   ar
    14     9    14   ar
    15     9    17   ar
    16    10    22   ar
    17    10    33   ar
    18    11    22   ar
    19    11    34   ar
    20    12    13   ar
    21    13    14   ar
    22    15    18   ar
    23    15    21   ar
    24    16    19    2
    25    17    22    1
    26    18    23   ar
    27    19    20    1
    28    20    26   ar
    29    20    27   ar
    30    21    24   ar
    31    23    25   ar
    32    24    25   ar
    33    26    28   ar
    34    27    29   ar
    35    28    30   ar
    36    29    30   ar
    37    33    35   ar
    38    34    35   ar
    39     7    36    1
    40    16    37    1
    41    19    38    1
    42    21    39    1
    43    23    40    1
    44    24    41    1
    45    25    42    1
    46    26    43    1
    47    27    44    1
    48    28    45    1
    49    29    46    1
    50    30    47    1
    51    31    48    1
    52    31    49    1
    53    31    50    1
    54    32    51    1
    55    32    52    1
    56    32    53    1
    57    33    54    1
    58    34    55    1
    59    35    56    1
@<TRIPOS>MOLECULE
../1EDN/PCA2_17-21.pdb
 47 48 0 0 0
SMALL
GASTEIGER

@<TRIPOS>ATOM
      1  N         -4.4680    0.3970   -1.5420 N.3    17  LEU17      -0.1231
      2  CA        -5.5730   -0.5090   -1.8150 C.3    17  LEU17       0.1693
      3  CB        -5.9860   -1.2020   -0.4580 C.3    17  LEU17       0.0284
      4  CG        -7.1280   -2.2100   -0.5390 C.3    17  LEU17       0.0019
      5  CD1       -6.7120   -3.3620   -1.4700 C.3    17  LEU17       0.0001
      6  CD2       -7.4980   -2.5610    0.9130 C.3    17  LEU17       0.0001
      7  C         -6.7000    0.2280   -2.5610 C.2    17  LEU17       0.2592
      8  O         -7.1860   -0.2780   -3.5510 O.2    17  LEU17      -0.2718
      9  N         -7.2650    1.2690   -1.9650 N.am   18  ASP18      -0.1960
     10  CA        -8.5260    1.8930   -2.2590 C.3    18  ASP18       0.1840
     11  CB        -9.6810    1.0560   -1.6740 C.3    18  ASP18       0.1450
     12  CG       -11.0010    1.6360   -2.1090 C.2    18  ASP18       0.3671
     13  OD1      -11.5960    2.3310   -1.2790 O.co2  18  ASP18      -0.2456
     14  OD2      -11.5460    1.2700   -3.1630 O.co2  18  ASP18      -0.2456
     15  C         -8.5570    3.3770   -1.7380 C.2    18  ASP18       0.2622
     16  O         -8.6960    4.2620   -2.5680 O.2    18  ASP18      -0.2715
     17  N         -8.4180    3.5730   -0.4160 N.am   19  ILE19      -0.1963
     18  CA        -8.3980    4.9040    0.1930 C.3    19  ILE19       0.1727
     19  CB        -8.4260    4.8620    1.7600 C.3    19  ILE19       0.0290
     20  CG2       -7.7310    6.0060    2.5190 C.3    19  ILE19       0.0023
     21  CG1       -9.9240    4.5740    2.2500 C.3    19  ILE19       0.0022
     22  CD1      -10.9740    5.6950    2.0110 C.3    19  ILE19       0.0001
     23  C         -7.1570    5.7010   -0.3260 C.2    19  ILE19       0.2616
     24  O         -7.3050    6.7970   -0.9200 O.2    19  ILE19      -0.2715
     25  N         -5.9900    5.0720   -0.2260 N.am   20  ILE20      -0.1963
     26  CA        -4.7520    5.3490   -0.9430 C.3    20  ILE20       0.1727
     27  CB        -3.5230    4.9310   -0.1080 C.3    20  ILE20       0.0290
     28  CG2       -2.1210    5.5060   -0.7390 C.3    20  ILE20       0.0023
     29  CG1       -3.5940    5.4760    1.3470 C.3    20  ILE20       0.0022
     30  CD1       -2.3570    5.1940    2.2260 C.3    20  ILE20       0.0001
     31  C         -4.7590    4.7050   -2.3650 C.2    20  ILE20       0.2617
     32  O         -4.2060    3.6200   -2.5900 O.2    20  ILE20      -0.2715
     33  N         -5.4060    5.3330   -3.3880 N.am   21  TRP21      -0.1938
     34  CA        -5.3950    4.7680   -4.7850 C.3    21  TRP21       0.2021
     35  CB        -6.6210    3.8650   -5.0310 C.3    21  TRP21       0.0612
     36  CG        -6.7890    3.3770   -6.4480 C.ar   21  TRP21       0.0007
     37  CD1       -7.1340    4.1960   -7.4760 C.ar   21  TRP21       0.0946
     38  NE1       -7.1740    3.4060   -8.6160 N.ar   21  TRP21      -0.2442
     39  CE2       -6.9360    2.0750   -8.3350 C.ar   21  TRP21       0.0810
     40  CZ2       -6.8300    1.0510   -9.2060 C.ar   21  TRP21       0.0191
     41  CH2       -6.3330   -0.2010   -8.7710 C.ar   21  TRP21       0.0015
     42  CZ3       -5.9560   -0.2520   -7.3640 C.ar   21  TRP21       0.0001
     43  CE3       -6.0150    0.8940   -6.5860 C.ar   21  TRP21       0.0012
     44  CD2       -6.6320    2.0560   -6.9830 C.ar   21  TRP21       0.0152
     45  C         -5.1960    5.8550   -5.8260 C.2    21  TRP21       0.3845
     46  O         -4.1840    5.6720   -6.5070 O.co2  21  TRP21      -0.2437
     47  OXT       -5.9640    6.8330   -6.0170 O.co2  21  TRP21      -0.2437
@<TRIPOS>BOND
     1    40    41   ar
     2    40    39   ar
     3    41    42   ar
     4    38    39   ar
     5    38    37   ar
     6    39    44   ar
     7    37    36   ar
     8    42    43   ar
     9    44    43   ar
    10    44    36   ar
    11    46    45   ar
    12    36    35    1
    13    47    45   ar
    14    45    34    1
    15    35    34    1
    16    34    33    1
    17     8     7    2
    18    33    31   am
    19    14    12   ar
    20    32    31    2
    21    16    15    2
    22     7     9   am
    23     7     2    1
    24    31    26    1
    25    10     9    1
    26    10    15    1
    27    10    11    1
    28    12    11    1
    29    12    13   ar
    30     2     1    1
    31     2     3    1
    32    15    17   am
    33     5     4    1
    34    26    25    1
    35    26    27    1
    36    24    23    2
    37    28    27    1
    38     4     3    1
    39     4     6    1
    40    17    18    1
    41    23    25   am
    42    23    18    1
    43    27    29    1
    44    18    19    1
    45    29    30    1
    46    19    21    1
    47    19    20    1
    48    22    21    1
