@<TRIPOS>MOLECULE
01479498K
 57 61 0 0 0
SMALL
GASTEIGER

@<TRIPOS>ATOM
      1 C          -7.5365    4.2934   -5.6797 C.3     1  LIG11       0.1526
      2 C          -6.5156    4.6143   -4.6300 C.2     1  LIG11       0.0278
      3 C          -7.1332    3.2108   -6.6827 C.ar    1  LIG11       0.0009
      4 O          -8.8357    3.9172   -5.1543 O.3     1  LIG11      -0.4789
      5 C          -6.5980    4.1926   -3.3548 C.2     1  LIG11       0.0016
      6 C          -5.3956    5.5098   -5.1492 C.2     1  LIG11       0.0721
      7 C          -6.4240    2.0611   -6.2861 C.ar    1  LIG11      -0.0091
      8 C          -7.5419    3.3314   -8.0346 C.ar    1  LIG11      -0.0511
      9 C          -8.8148    3.2319   -3.9707 C.ar    1  LIG11       0.1298
     10 C          -7.7546    3.3137   -3.0642 C.ar    1  LIG11       0.0283
     11 C          -5.5768    4.5714   -2.3567 C.ar    1  LIG11      -0.0165
     12 O          -4.2839    4.9377   -5.3201 O.co2   1  LIG11      -0.5448
     13 O          -5.7501    6.6954   -5.4055 O.co2   1  LIG11      -0.5448
     14 C          -6.1468    1.0993   -7.2335 C.ar    1  LIG11       0.1666
     15 C          -7.2439    2.3401   -8.9761 C.ar    1  LIG11      -0.0158
     16 C          -9.9348    2.4490   -3.6890 C.ar    1  LIG11      -0.0158
     17 C          -7.8176    2.5536   -1.8853 C.ar    1  LIG11      -0.0087
     18 C          -5.7961    5.6564   -1.5043 C.ar    1  LIG11      -0.0505
     19 C          -4.4188    3.8027   -2.2027 C.ar    1  LIG11      -0.0505
     20 C          -6.5449    1.2355   -8.5422 C.ar    1  LIG11       0.1662
     21 O          -5.4827   -0.0673   -7.0114 O.3     1  LIG11      -0.4526
     22 C          -9.9802    1.6945   -2.5172 C.ar    1  LIG11      -0.0164
     23 C          -8.9075    1.7197   -1.6277 C.ar    1  LIG11       0.1217
     24 C          -4.8838    5.9415   -0.4851 C.ar    1  LIG11      -0.0194
     25 C          -3.5098    4.0859   -1.1781 C.ar    1  LIG11      -0.0194
     26 O          -6.1768    0.1741   -9.3109 O.3     1  LIG11      -0.4526
     27 C          -5.4691   -0.6227   -8.3393 C.3     1  LIG11       0.2332
     28 O          -9.0362    0.9316   -0.5156 O.3     1  LIG11      -0.4893
     29 C          -3.7512    5.1442   -0.3006 C.ar    1  LIG11       0.1201
     30 C          -7.8270    0.3416   -0.0158 C.3     1  LIG11       0.0946
     31 O          -2.9593    5.5029    0.7578 O.3     1  LIG11      -0.4951
     32 C          -7.4154    1.0505    1.2704 C.3     1  LIG11      -0.0281
     33 C          -8.1319   -1.1277    0.2666 C.3     1  LIG11      -0.0281
     34 C          -1.9546    4.5695    1.1322 C.3     1  LIG11       0.0788
     35 H          -7.7356    5.2143   -6.2428 H       1  LIG11       0.0837
     36 H          -6.0893    1.9288   -5.2630 H       1  LIG11       0.0659
     37 H          -8.0966    4.2134   -8.3496 H       1  LIG11       0.0623
     38 H          -7.5516    2.4391  -10.0098 H       1  LIG11       0.0655
     39 H         -10.7587    2.4157   -4.3951 H       1  LIG11       0.0655
     40 H          -7.0042    2.6240   -1.1719 H       1  LIG11       0.0661
     41 H          -6.6767    6.2801   -1.6351 H       1  LIG11       0.0625
     42 H          -4.2186    2.9888   -2.8966 H       1  LIG11       0.0625
     43 H         -10.8444    1.0718   -2.3080 H       1  LIG11       0.0655
     44 H          -5.0632    6.7883    0.1709 H       1  LIG11       0.0654
     45 H          -2.6214    3.4695   -1.1083 H       1  LIG11       0.0654
     46 H          -5.9277   -1.6177   -8.3051 H       1  LIG11       0.1166
     47 H          -4.4276   -0.7304   -8.6648 H       1  LIG11       0.1166
     48 H          -7.0106    0.3714   -0.7482 H       1  LIG11       0.0727
     49 H          -8.2163    1.0045    2.0164 H       1  LIG11       0.0265
     50 H          -7.2193    2.1119    1.0904 H       1  LIG11       0.0265
     51 H          -6.5132    0.6012    1.6969 H       1  LIG11       0.0265
     52 H          -8.9554   -1.2295    0.9822 H       1  LIG11       0.0265
     53 H          -7.2542   -1.6466    0.6644 H       1  LIG11       0.0265
     54 H          -8.4490   -1.6336   -0.6520 H       1  LIG11       0.0265
     55 H          -1.4890    4.9323    2.0538 H       1  LIG11       0.0660
     56 H          -1.1732    4.5030    0.3685 H       1  LIG11       0.0660
     57 H          -2.3853    3.5847    1.3454 H       1  LIG11       0.0660
@<TRIPOS>BOND
     1     1     4    1
     2     1     2    1
     3     1     3    1
     4     2     5    2
     5     2     6    1
     6     3     8   ar
     7     3     7   ar
     8     4     9    1
     9     5    10    1
    10     5    11    1
    11     6    13   ar
    12     6    12   ar
    13     7    14   ar
    14     8    15   ar
    15     9    16   ar
    16     9    10   ar
    17    10    17   ar
    18    11    18   ar
    19    11    19   ar
    20    14    21    1
    21    14    20   ar
    22    15    20   ar
    23    16    22   ar
    24    17    23   ar
    25    18    24   ar
    26    19    25   ar
    27    20    26    1
    28    21    27    1
    29    22    23   ar
    30    23    28    1
    31    24    29   ar
    32    25    29   ar
    33    26    27    1
    34    28    30    1
    35    29    31    1
    36    30    33    1
    37    30    32    1
    38    31    34    1
    39     1    35    1
    40     7    36    1
    41     8    37    1
    42    15    38    1
    43    16    39    1
    44    17    40    1
    45    18    41    1
    46    19    42    1
    47    22    43    1
    48    24    44    1
    49    25    45    1
    50    27    46    1
    51    27    47    1
    52    30    48    1
    53    32    49    1
    54    32    50    1
    55    32    51    1
    56    33    52    1
    57    33    53    1
    58    33    54    1
    59    34    55    1
    60    34    56    1
    61    34    57    1
@<TRIPOS>MOLECULE
../1EDN/PCA2_17-21.pdb
 47 48 0 0 0
SMALL
GASTEIGER

@<TRIPOS>ATOM
      1  N         -4.4680    0.3970   -1.5420 N.3    17  LEU17      -0.1231
      2  CA        -5.5730   -0.5090   -1.8150 C.3    17  LEU17       0.1693
      3  CB        -5.9860   -1.2020   -0.4580 C.3    17  LEU17       0.0284
      4  CG        -7.1280   -2.2100   -0.5390 C.3    17  LEU17       0.0019
      5  CD1       -6.7120   -3.3620   -1.4700 C.3    17  LEU17       0.0001
      6  CD2       -7.4980   -2.5610    0.9130 C.3    17  LEU17       0.0001
      7  C         -6.7000    0.2280   -2.5610 C.2    17  LEU17       0.2592
      8  O         -7.1860   -0.2780   -3.5510 O.2    17  LEU17      -0.2718
      9  N         -7.2650    1.2690   -1.9650 N.am   18  ASP18      -0.1960
     10  CA        -8.5260    1.8930   -2.2590 C.3    18  ASP18       0.1840
     11  CB        -9.6810    1.0560   -1.6740 C.3    18  ASP18       0.1450
     12  CG       -11.0010    1.6360   -2.1090 C.2    18  ASP18       0.3671
     13  OD1      -11.5960    2.3310   -1.2790 O.co2  18  ASP18      -0.2456
     14  OD2      -11.5460    1.2700   -3.1630 O.co2  18  ASP18      -0.2456
     15  C         -8.5570    3.3770   -1.7380 C.2    18  ASP18       0.2622
     16  O         -8.6960    4.2620   -2.5680 O.2    18  ASP18      -0.2715
     17  N         -8.4180    3.5730   -0.4160 N.am   19  ILE19      -0.1963
     18  CA        -8.3980    4.9040    0.1930 C.3    19  ILE19       0.1727
     19  CB        -8.4260    4.8620    1.7600 C.3    19  ILE19       0.0290
     20  CG2       -7.7310    6.0060    2.5190 C.3    19  ILE19       0.0023
     21  CG1       -9.9240    4.5740    2.2500 C.3    19  ILE19       0.0022
     22  CD1      -10.9740    5.6950    2.0110 C.3    19  ILE19       0.0001
     23  C         -7.1570    5.7010   -0.3260 C.2    19  ILE19       0.2616
     24  O         -7.3050    6.7970   -0.9200 O.2    19  ILE19      -0.2715
     25  N         -5.9900    5.0720   -0.2260 N.am   20  ILE20      -0.1963
     26  CA        -4.7520    5.3490   -0.9430 C.3    20  ILE20       0.1727
     27  CB        -3.5230    4.9310   -0.1080 C.3    20  ILE20       0.0290
     28  CG2       -2.1210    5.5060   -0.7390 C.3    20  ILE20       0.0023
     29  CG1       -3.5940    5.4760    1.3470 C.3    20  ILE20       0.0022
     30  CD1       -2.3570    5.1940    2.2260 C.3    20  ILE20       0.0001
     31  C         -4.7590    4.7050   -2.3650 C.2    20  ILE20       0.2617
     32  O         -4.2060    3.6200   -2.5900 O.2    20  ILE20      -0.2715
     33  N         -5.4060    5.3330   -3.3880 N.am   21  TRP21      -0.1938
     34  CA        -5.3950    4.7680   -4.7850 C.3    21  TRP21       0.2021
     35  CB        -6.6210    3.8650   -5.0310 C.3    21  TRP21       0.0612
     36  CG        -6.7890    3.3770   -6.4480 C.ar   21  TRP21       0.0007
     37  CD1       -7.1340    4.1960   -7.4760 C.ar   21  TRP21       0.0946
     38  NE1       -7.1740    3.4060   -8.6160 N.ar   21  TRP21      -0.2442
     39  CE2       -6.9360    2.0750   -8.3350 C.ar   21  TRP21       0.0810
     40  CZ2       -6.8300    1.0510   -9.2060 C.ar   21  TRP21       0.0191
     41  CH2       -6.3330   -0.2010   -8.7710 C.ar   21  TRP21       0.0015
     42  CZ3       -5.9560   -0.2520   -7.3640 C.ar   21  TRP21       0.0001
     43  CE3       -6.0150    0.8940   -6.5860 C.ar   21  TRP21       0.0012
     44  CD2       -6.6320    2.0560   -6.9830 C.ar   21  TRP21       0.0152
     45  C         -5.1960    5.8550   -5.8260 C.2    21  TRP21       0.3845
     46  O         -4.1840    5.6720   -6.5070 O.co2  21  TRP21      -0.2437
     47  OXT       -5.9640    6.8330   -6.0170 O.co2  21  TRP21      -0.2437
@<TRIPOS>BOND
     1    40    41   ar
     2    40    39   ar
     3    41    42   ar
     4    38    39   ar
     5    38    37   ar
     6    39    44   ar
     7    37    36   ar
     8    42    43   ar
     9    44    43   ar
    10    44    36   ar
    11    46    45   ar
    12    36    35    1
    13    47    45   ar
    14    45    34    1
    15    35    34    1
    16    34    33    1
    17     8     7    2
    18    33    31   am
    19    14    12   ar
    20    32    31    2
    21    16    15    2
    22     7     9   am
    23     7     2    1
    24    31    26    1
    25    10     9    1
    26    10    15    1
    27    10    11    1
    28    12    11    1
    29    12    13   ar
    30     2     1    1
    31     2     3    1
    32    15    17   am
    33     5     4    1
    34    26    25    1
    35    26    27    1
    36    24    23    2
    37    28    27    1
    38     4     3    1
    39     4     6    1
    40    17    18    1
    41    23    25   am
    42    23    18    1
    43    27    29    1
    44    18    19    1
    45    29    30    1
    46    19    21    1
    47    19    20    1
    48    22    21    1
