@<TRIPOS>MOLECULE
*****
 48 50 0 0 0
SMALL
GASTEIGER

@<TRIPOS>ATOM
      1 C         -11.0423    2.5919   -2.0279 C.ar    1  LIG11      -0.0615
      2 C         -10.9758    1.2405   -2.3500 C.ar    1  LIG11      -0.0617
      3 C          -9.7406    0.6018   -2.3809 C.ar    1  LIG11      -0.0615
      4 C          -8.5750    1.3087   -2.0687 C.ar    1  LIG11      -0.0576
      5 C          -8.6164    2.6689   -1.7088 C.ar    1  LIG11      -0.0332
      6 C          -9.8757    3.3009   -1.7249 C.ar    1  LIG11      -0.0576
      7 C          -7.7606    5.8306   -0.3050 C.ar    1  LIG11      -0.0576
      8 C          -8.0980    6.6581    0.7728 C.ar    1  LIG11      -0.0615
      9 C          -8.3639    6.1125    2.0239 C.ar    1  LIG11      -0.0617
     10 C          -8.3016    4.7355    2.1967 C.ar    1  LIG11      -0.0615
     11 C          -7.9611    3.9110    1.1199 C.ar    1  LIG11      -0.0576
     12 N          -6.7985    2.6121   -5.9073 N.ar    1  LIG11      -0.2002
     13 C          -6.5142    3.5362   -4.9724 C.ar    1  LIG11       0.3190
     14 N          -6.0784    4.7724   -5.2299 N.ar    1  LIG11      -0.2002
     15 C          -5.8434    5.0893   -6.5124 C.ar    1  LIG11       0.0453
     16 C          -6.1065    4.2125   -7.5449 C.ar    1  LIG11      -0.0193
     17 C          -6.5995    2.9715   -7.1895 C.ar    1  LIG11       0.0453
     18 C          -6.9536    1.9556   -8.2306 C.3     1  LIG11      -0.0221
     19 C          -5.2392    6.4325   -6.7807 C.3     1  LIG11      -0.0221
     20 O          -6.6431    3.1021   -3.6764 O.3     1  LIG11      -0.4519
     21 C          -6.7963    4.1556   -2.6746 C.3     1  LIG11       0.1554
     22 C          -7.3128    3.4750   -1.3401 C.3     1  LIG11       0.0601
     23 C          -5.4382    4.9073   -2.4773 C.2     1  LIG11       0.0833
     24 O          -4.4001    4.1884   -2.3647 O.co2   1  LIG11      -0.5460
     25 O          -5.5204    6.1747   -2.4381 O.co2   1  LIG11      -0.5460
     26 C          -7.6598    4.4386   -0.1560 C.ar    1  LIG11      -0.0332
     27 C          -6.2109    2.5003   -0.8117 C.3     1  LIG11      -0.0477
     28 H         -12.0003    3.1042   -2.0165 H       1  LIG11       0.0618
     29 H         -11.8793    0.6910   -2.5926 H       1  LIG11       0.0618
     30 H          -9.6725   -0.4458   -2.6603 H       1  LIG11       0.0618
     31 H          -7.6262    0.7826   -2.1392 H       1  LIG11       0.0621
     32 H          -9.9627    4.3596   -1.4920 H       1  LIG11       0.0621
     33 H          -7.5730    6.3122   -1.2612 H       1  LIG11       0.0621
     34 H          -8.1395    7.7331    0.6215 H       1  LIG11       0.0618
     35 H          -8.6173    6.7596    2.8574 H       1  LIG11       0.0618
     36 H          -8.5154    4.2956    3.1660 H       1  LIG11       0.0618
     37 H          -7.9455    2.8365    1.2850 H       1  LIG11       0.0621
     38 H          -5.9223    4.4837   -8.5756 H       1  LIG11       0.0653
     39 H          -6.6170    2.2613   -9.2273 H       1  LIG11       0.0293
     40 H          -8.0394    1.8204   -8.2611 H       1  LIG11       0.0293
     41 H          -6.4830    0.9964   -7.9951 H       1  LIG11       0.0293
     42 H          -5.1004    6.9930   -5.8490 H       1  LIG11       0.0293
     43 H          -5.8860    7.0173   -7.4393 H       1  LIG11       0.0293
     44 H          -4.2576    6.3154   -7.2522 H       1  LIG11       0.0293
     45 H          -7.5636    4.8561   -3.0395 H       1  LIG11       0.0810
     46 H          -5.7572    1.9095   -1.6159 H       1  LIG11       0.0243
     47 H          -6.6001    1.7795   -0.0834 H       1  LIG11       0.0243
     48 H          -5.4013    3.0438   -0.3099 H       1  LIG11       0.0243
@<TRIPOS>BOND
     1     1     2   ar
     2     2     3   ar
     3     3     4   ar
     4     4     5   ar
     5     5     6   ar
     6     5    22    1
     7     6     1   ar
     8     7     8   ar
     9     8     9   ar
    10     9    10   ar
    11    10    11   ar
    12    11    26   ar
    13    12    13   ar
    14    13    14   ar
    15    14    15   ar
    16    15    16   ar
    17    15    19    1
    18    16    17   ar
    19    17    12   ar
    20    17    18    1
    21    20    21    1
    22    20    13    1
    23    21    23    1
    24    21    22    1
    25    22    27    1
    26    22    26    1
    27    23    25   ar
    28    23    24   ar
    29    26     7   ar
    30     1    28    1
    31     2    29    1
    32     3    30    1
    33     4    31    1
    34     6    32    1
    35     7    33    1
    36     8    34    1
    37     9    35    1
    38    10    36    1
    39    11    37    1
    40    16    38    1
    41    18    39    1
    42    18    40    1
    43    18    41    1
    44    19    42    1
    45    19    43    1
    46    19    44    1
    47    21    45    1
    48    27    46    1
    49    27    47    1
    50    27    48    1
@<TRIPOS>MOLECULE
../1EDN/PCA2_17-21.pdb
 47 48 0 0 0
SMALL
GASTEIGER

@<TRIPOS>ATOM
      1  N         -4.4680    0.3970   -1.5420 N.3    17  LEU17      -0.1231
      2  CA        -5.5730   -0.5090   -1.8150 C.3    17  LEU17       0.1693
      3  CB        -5.9860   -1.2020   -0.4580 C.3    17  LEU17       0.0284
      4  CG        -7.1280   -2.2100   -0.5390 C.3    17  LEU17       0.0019
      5  CD1       -6.7120   -3.3620   -1.4700 C.3    17  LEU17       0.0001
      6  CD2       -7.4980   -2.5610    0.9130 C.3    17  LEU17       0.0001
      7  C         -6.7000    0.2280   -2.5610 C.2    17  LEU17       0.2592
      8  O         -7.1860   -0.2780   -3.5510 O.2    17  LEU17      -0.2718
      9  N         -7.2650    1.2690   -1.9650 N.am   18  ASP18      -0.1960
     10  CA        -8.5260    1.8930   -2.2590 C.3    18  ASP18       0.1840
     11  CB        -9.6810    1.0560   -1.6740 C.3    18  ASP18       0.1450
     12  CG       -11.0010    1.6360   -2.1090 C.2    18  ASP18       0.3671
     13  OD1      -11.5960    2.3310   -1.2790 O.co2  18  ASP18      -0.2456
     14  OD2      -11.5460    1.2700   -3.1630 O.co2  18  ASP18      -0.2456
     15  C         -8.5570    3.3770   -1.7380 C.2    18  ASP18       0.2622
     16  O         -8.6960    4.2620   -2.5680 O.2    18  ASP18      -0.2715
     17  N         -8.4180    3.5730   -0.4160 N.am   19  ILE19      -0.1963
     18  CA        -8.3980    4.9040    0.1930 C.3    19  ILE19       0.1727
     19  CB        -8.4260    4.8620    1.7600 C.3    19  ILE19       0.0290
     20  CG2       -7.7310    6.0060    2.5190 C.3    19  ILE19       0.0023
     21  CG1       -9.9240    4.5740    2.2500 C.3    19  ILE19       0.0022
     22  CD1      -10.9740    5.6950    2.0110 C.3    19  ILE19       0.0001
     23  C         -7.1570    5.7010   -0.3260 C.2    19  ILE19       0.2616
     24  O         -7.3050    6.7970   -0.9200 O.2    19  ILE19      -0.2715
     25  N         -5.9900    5.0720   -0.2260 N.am   20  ILE20      -0.1963
     26  CA        -4.7520    5.3490   -0.9430 C.3    20  ILE20       0.1727
     27  CB        -3.5230    4.9310   -0.1080 C.3    20  ILE20       0.0290
     28  CG2       -2.1210    5.5060   -0.7390 C.3    20  ILE20       0.0023
     29  CG1       -3.5940    5.4760    1.3470 C.3    20  ILE20       0.0022
     30  CD1       -2.3570    5.1940    2.2260 C.3    20  ILE20       0.0001
     31  C         -4.7590    4.7050   -2.3650 C.2    20  ILE20       0.2617
     32  O         -4.2060    3.6200   -2.5900 O.2    20  ILE20      -0.2715
     33  N         -5.4060    5.3330   -3.3880 N.am   21  TRP21      -0.1938
     34  CA        -5.3950    4.7680   -4.7850 C.3    21  TRP21       0.2021
     35  CB        -6.6210    3.8650   -5.0310 C.3    21  TRP21       0.0612
     36  CG        -6.7890    3.3770   -6.4480 C.ar   21  TRP21       0.0007
     37  CD1       -7.1340    4.1960   -7.4760 C.ar   21  TRP21       0.0946
     38  NE1       -7.1740    3.4060   -8.6160 N.ar   21  TRP21      -0.2442
     39  CE2       -6.9360    2.0750   -8.3350 C.ar   21  TRP21       0.0810
     40  CZ2       -6.8300    1.0510   -9.2060 C.ar   21  TRP21       0.0191
     41  CH2       -6.3330   -0.2010   -8.7710 C.ar   21  TRP21       0.0015
     42  CZ3       -5.9560   -0.2520   -7.3640 C.ar   21  TRP21       0.0001
     43  CE3       -6.0150    0.8940   -6.5860 C.ar   21  TRP21       0.0012
     44  CD2       -6.6320    2.0560   -6.9830 C.ar   21  TRP21       0.0152
     45  C         -5.1960    5.8550   -5.8260 C.2    21  TRP21       0.3845
     46  O         -4.1840    5.6720   -6.5070 O.co2  21  TRP21      -0.2437
     47  OXT       -5.9640    6.8330   -6.0170 O.co2  21  TRP21      -0.2437
@<TRIPOS>BOND
     1    40    41   ar
     2    40    39   ar
     3    41    42   ar
     4    38    39   ar
     5    38    37   ar
     6    39    44   ar
     7    37    36   ar
     8    42    43   ar
     9    44    43   ar
    10    44    36   ar
    11    46    45   ar
    12    36    35    1
    13    47    45   ar
    14    45    34    1
    15    35    34    1
    16    34    33    1
    17     8     7    2
    18    33    31   am
    19    14    12   ar
    20    32    31    2
    21    16    15    2
    22     7     9   am
    23     7     2    1
    24    31    26    1
    25    10     9    1
    26    10    15    1
    27    10    11    1
    28    12    11    1
    29    12    13   ar
    30     2     1    1
    31     2     3    1
    32    15    17   am
    33     5     4    1
    34    26    25    1
    35    26    27    1
    36    24    23    2
    37    28    27    1
    38     4     3    1
    39     4     6    1
    40    17    18    1
    41    23    25   am
    42    23    18    1
    43    27    29    1
    44    18    19    1
    45    29    30    1
    46    19    21    1
    47    19    20    1
    48    22    21    1
