@<TRIPOS>MOLECULE
3047752
 70 74 0 0 0
SMALL
GASTEIGER

@<TRIPOS>ATOM
      1 O          -3.6079    4.9292   -5.1678 O.co2   1  LIG11      -0.5495
      2 O          -5.3355    6.2213   -5.8944 O.co2   1  LIG11      -0.5495
      3 O          -7.5512    2.4968  -10.3753 O.3     1  LIG11      -0.4526
      4 O          -9.8170    3.0826   -9.7816 O.3     1  LIG11      -0.4526
      5 O          -8.7209    5.5352    0.9673 O.3     1  LIG11      -0.4951
      6 O          -4.0850    6.0434    2.4922 O.co2   1  LIG11      -0.5495
      7 O          -3.1399    4.0979    1.7722 O.co2   1  LIG11      -0.5495
      8 N          -5.5971    1.2222   -2.5928 N.ar    1  LIG11      -0.2556
      9 C          -5.8389    4.2557   -4.7037 C.3     1  LIG11       0.0217
     10 C          -5.4237    3.6499   -3.3333 C.3     1  LIG11       0.0357
     11 C          -5.8523    3.1080   -5.7514 C.3     1  LIG11       0.0199
     12 C          -5.9221    1.8757   -4.8907 C.ar    1  LIG11      -0.0174
     13 C          -5.6645    2.1615   -3.5602 C.ar    1  LIG11       0.0534
     14 C          -6.2349    4.2103   -2.1525 C.ar    1  LIG11      -0.0344
     15 C          -6.9660    3.1583   -6.7953 C.ar    1  LIG11      -0.0356
     16 C          -4.8267    5.2363   -5.2839 C.2     1  LIG11       0.0466
     17 C          -6.1176    0.5584   -5.2734 C.ar    1  LIG11      -0.0546
     18 C          -5.6340    4.8508   -1.0363 C.ar    1  LIG11      -0.0395
     19 C          -7.6407    4.0612   -2.1636 C.ar    1  LIG11      -0.0542
     20 C          -5.8047   -0.0614   -2.9694 C.ar    1  LIG11       0.0416
     21 C          -6.6596    2.8184   -8.1287 C.ar    1  LIG11      -0.0124
     22 C          -6.0670   -0.4282   -4.2922 C.ar    1  LIG11      -0.0401
     23 C          -8.3016    3.4801   -6.4630 C.ar    1  LIG11      -0.0543
     24 C          -4.1165    4.9804   -0.9179 C.3     1  LIG11      -0.0196
     25 C          -6.4691    5.3196    0.0008 C.ar    1  LIG11      -0.0165
     26 C          -5.7276   -1.1036   -1.8828 C.3     1  LIG11      -0.0104
     27 C          -3.5259    5.8626    0.1988 C.3     1  LIG11      -0.0003
     28 C          -7.6771    2.8178   -9.0583 C.ar    1  LIG11       0.1665
     29 C          -8.4373    4.5251   -1.1178 C.ar    1  LIG11      -0.0197
     30 C          -9.3130    3.4848   -7.4310 C.ar    1  LIG11      -0.0159
     31 C          -7.8547    5.1443   -0.0216 C.ar    1  LIG11       0.1204
     32 C          -8.9677    3.1457   -8.7200 C.ar    1  LIG11       0.1662
     33 C          -6.9053   -0.9889   -0.9119 C.3     1  LIG11      -0.0479
     34 C          -2.0295    6.0895   -0.0404 C.3     1  LIG11      -0.0570
     35 C          -6.8509   -2.0114    0.2254 C.3     1  LIG11      -0.0556
     36 C          -3.5948    5.2650    1.6169 C.2     1  LIG11       0.0449
     37 C          -8.9010    2.7073  -10.8295 C.3     1  LIG11       0.2332
     38 C          -7.0559   -3.4449   -0.2405 C.3     1  LIG11      -0.0653
     39 C          -8.1133    5.8208    2.2263 C.3     1  LIG11       0.0788
     40 H          -6.8013    4.7736   -4.6333 H       1  LIG11       0.0379
     41 H          -4.3512    3.7599   -3.1548 H       1  LIG11       0.0419
     42 H          -4.8917    3.0541   -6.2835 H       1  LIG11       0.0404
     43 H          -6.2950    0.2999   -6.3111 H       1  LIG11       0.0622
     44 H          -8.1240    3.5511   -2.9930 H       1  LIG11       0.0622
     45 H          -5.6459    2.5638   -8.4215 H       1  LIG11       0.0658
     46 H          -6.2166   -1.4673   -4.5608 H       1  LIG11       0.0636
     47 H          -8.5614    3.7375   -5.4390 H       1  LIG11       0.0622
     48 H          -3.7065    3.9660   -0.8373 H       1  LIG11       0.0319
     49 H          -3.7671    5.4063   -1.8675 H       1  LIG11       0.0319
     50 H          -6.0175    5.8225    0.8471 H       1  LIG11       0.0657
     51 H          -5.6974   -2.1016   -2.3336 H       1  LIG11       0.0328
     52 H          -4.7809   -0.9744   -1.3442 H       1  LIG11       0.0328
     53 H          -4.0170    6.8445    0.1899 H       1  LIG11       0.0361
     54 H          -9.5123    4.3812   -1.1510 H       1  LIG11       0.0654
     55 H         -10.3302    3.7496   -7.1709 H       1  LIG11       0.0655
     56 H          -6.9130    0.0146   -0.4668 H       1  LIG11       0.0269
     57 H          -7.8528   -1.0919   -1.4557 H       1  LIG11       0.0269
     58 H          -1.4812    5.1428   -0.1043 H       1  LIG11       0.0236
     59 H          -1.8665    6.6325   -0.9774 H       1  LIG11       0.0236
     60 H          -1.5829    6.6798    0.7676 H       1  LIG11       0.0236
     61 H          -5.8951   -1.9316    0.7564 H       1  LIG11       0.0263
     62 H          -7.6373   -1.7667    0.9494 H       1  LIG11       0.0263
     63 H          -8.8964    3.4954  -11.5916 H       1  LIG11       0.1166
     64 H          -9.2622    1.7802  -11.2900 H       1  LIG11       0.1166
     65 H          -6.2295   -3.7850   -0.8709 H       1  LIG11       0.0230
     66 H          -7.1111   -4.1157    0.6230 H       1  LIG11       0.0230
     67 H          -7.9875   -3.5446   -0.8062 H       1  LIG11       0.0230
     68 H          -8.9164    5.9435    2.9596 H       1  LIG11       0.0660
     69 H          -7.4811    4.9932    2.5665 H       1  LIG11       0.0660
     70 H          -7.5557    6.7622    2.1879 H       1  LIG11       0.0660
@<TRIPOS>BOND
     1     1    16   ar
     2     2    16   ar
     3     3    28    1
     4     3    37    1
     5     4    32    1
     6     4    37    1
     7     5    31    1
     8     5    39    1
     9     6    36   ar
    10     7    36   ar
    11     8    13   ar
    12     8    20   ar
    13     9    10    1
    14     9    11    1
    15     9    16    1
    16    10    13    1
    17    10    14    1
    18    11    12    1
    19    11    15    1
    20    12    13   ar
    21    12    17   ar
    22    14    18   ar
    23    14    19   ar
    24    15    21   ar
    25    15    23   ar
    26    17    22   ar
    27    18    24    1
    28    18    25   ar
    29    19    29   ar
    30    20    22   ar
    31    20    26    1
    32    21    28   ar
    33    23    30   ar
    34    24    27    1
    35    25    31   ar
    36    26    33    1
    37    27    34    1
    38    27    36    1
    39    28    32   ar
    40    29    31   ar
    41    30    32   ar
    42    33    35    1
    43    35    38    1
    44     9    40    1
    45    10    41    1
    46    11    42    1
    47    17    43    1
    48    19    44    1
    49    21    45    1
    50    22    46    1
    51    23    47    1
    52    24    48    1
    53    24    49    1
    54    25    50    1
    55    26    51    1
    56    26    52    1
    57    27    53    1
    58    29    54    1
    59    30    55    1
    60    33    56    1
    61    33    57    1
    62    34    58    1
    63    34    59    1
    64    34    60    1
    65    35    61    1
    66    35    62    1
    67    37    63    1
    68    37    64    1
    69    38    65    1
    70    38    66    1
    71    38    67    1
    72    39    68    1
    73    39    69    1
    74    39    70    1
@<TRIPOS>MOLECULE
../1EDN/PCA2_17-21.pdb
 47 48 0 0 0
SMALL
GASTEIGER

@<TRIPOS>ATOM
      1  N         -4.4680    0.3970   -1.5420 N.3    17  LEU17      -0.1231
      2  CA        -5.5730   -0.5090   -1.8150 C.3    17  LEU17       0.1693
      3  CB        -5.9860   -1.2020   -0.4580 C.3    17  LEU17       0.0284
      4  CG        -7.1280   -2.2100   -0.5390 C.3    17  LEU17       0.0019
      5  CD1       -6.7120   -3.3620   -1.4700 C.3    17  LEU17       0.0001
      6  CD2       -7.4980   -2.5610    0.9130 C.3    17  LEU17       0.0001
      7  C         -6.7000    0.2280   -2.5610 C.2    17  LEU17       0.2592
      8  O         -7.1860   -0.2780   -3.5510 O.2    17  LEU17      -0.2718
      9  N         -7.2650    1.2690   -1.9650 N.am   18  ASP18      -0.1960
     10  CA        -8.5260    1.8930   -2.2590 C.3    18  ASP18       0.1840
     11  CB        -9.6810    1.0560   -1.6740 C.3    18  ASP18       0.1450
     12  CG       -11.0010    1.6360   -2.1090 C.2    18  ASP18       0.3671
     13  OD1      -11.5960    2.3310   -1.2790 O.co2  18  ASP18      -0.2456
     14  OD2      -11.5460    1.2700   -3.1630 O.co2  18  ASP18      -0.2456
     15  C         -8.5570    3.3770   -1.7380 C.2    18  ASP18       0.2622
     16  O         -8.6960    4.2620   -2.5680 O.2    18  ASP18      -0.2715
     17  N         -8.4180    3.5730   -0.4160 N.am   19  ILE19      -0.1963
     18  CA        -8.3980    4.9040    0.1930 C.3    19  ILE19       0.1727
     19  CB        -8.4260    4.8620    1.7600 C.3    19  ILE19       0.0290
     20  CG2       -7.7310    6.0060    2.5190 C.3    19  ILE19       0.0023
     21  CG1       -9.9240    4.5740    2.2500 C.3    19  ILE19       0.0022
     22  CD1      -10.9740    5.6950    2.0110 C.3    19  ILE19       0.0001
     23  C         -7.1570    5.7010   -0.3260 C.2    19  ILE19       0.2616
     24  O         -7.3050    6.7970   -0.9200 O.2    19  ILE19      -0.2715
     25  N         -5.9900    5.0720   -0.2260 N.am   20  ILE20      -0.1963
     26  CA        -4.7520    5.3490   -0.9430 C.3    20  ILE20       0.1727
     27  CB        -3.5230    4.9310   -0.1080 C.3    20  ILE20       0.0290
     28  CG2       -2.1210    5.5060   -0.7390 C.3    20  ILE20       0.0023
     29  CG1       -3.5940    5.4760    1.3470 C.3    20  ILE20       0.0022
     30  CD1       -2.3570    5.1940    2.2260 C.3    20  ILE20       0.0001
     31  C         -4.7590    4.7050   -2.3650 C.2    20  ILE20       0.2617
     32  O         -4.2060    3.6200   -2.5900 O.2    20  ILE20      -0.2715
     33  N         -5.4060    5.3330   -3.3880 N.am   21  TRP21      -0.1938
     34  CA        -5.3950    4.7680   -4.7850 C.3    21  TRP21       0.2021
     35  CB        -6.6210    3.8650   -5.0310 C.3    21  TRP21       0.0612
     36  CG        -6.7890    3.3770   -6.4480 C.ar   21  TRP21       0.0007
     37  CD1       -7.1340    4.1960   -7.4760 C.ar   21  TRP21       0.0946
     38  NE1       -7.1740    3.4060   -8.6160 N.ar   21  TRP21      -0.2442
     39  CE2       -6.9360    2.0750   -8.3350 C.ar   21  TRP21       0.0810
     40  CZ2       -6.8300    1.0510   -9.2060 C.ar   21  TRP21       0.0191
     41  CH2       -6.3330   -0.2010   -8.7710 C.ar   21  TRP21       0.0015
     42  CZ3       -5.9560   -0.2520   -7.3640 C.ar   21  TRP21       0.0001
     43  CE3       -6.0150    0.8940   -6.5860 C.ar   21  TRP21       0.0012
     44  CD2       -6.6320    2.0560   -6.9830 C.ar   21  TRP21       0.0152
     45  C         -5.1960    5.8550   -5.8260 C.2    21  TRP21       0.3845
     46  O         -4.1840    5.6720   -6.5070 O.co2  21  TRP21      -0.2437
     47  OXT       -5.9640    6.8330   -6.0170 O.co2  21  TRP21      -0.2437
@<TRIPOS>BOND
     1    40    41   ar
     2    40    39   ar
     3    41    42   ar
     4    38    39   ar
     5    38    37   ar
     6    39    44   ar
     7    37    36   ar
     8    42    43   ar
     9    44    43   ar
    10    44    36   ar
    11    46    45   ar
    12    36    35    1
    13    47    45   ar
    14    45    34    1
    15    35    34    1
    16    34    33    1
    17     8     7    2
    18    33    31   am
    19    14    12   ar
    20    32    31    2
    21    16    15    2
    22     7     9   am
    23     7     2    1
    24    31    26    1
    25    10     9    1
    26    10    15    1
    27    10    11    1
    28    12    11    1
    29    12    13   ar
    30     2     1    1
    31     2     3    1
    32    15    17   am
    33     5     4    1
    34    26    25    1
    35    26    27    1
    36    24    23    2
    37    28    27    1
    38     4     3    1
    39     4     6    1
    40    17    18    1
    41    23    25   am
    42    23    18    1
    43    27    29    1
    44    18    19    1
    45    29    30    1
    46    19    21    1
    47    19    20    1
    48    22    21    1
