@<TRIPOS>MOLECULE
01012527H
 86 88 0 0 0
SMALL
GASTEIGER

@<TRIPOS>ATOM
      1 C          -4.3218    1.9604   -3.1096 C.3     1  LIG11       0.0531
      2 C          -5.0813    2.6742   -1.9995 C.3     1  LIG11      -0.0111
      3 C          -4.2637    2.9058   -4.3050 C.3     1  LIG11       0.0375
      4 C          -2.9774    1.7342   -2.4309 C.2     1  LIG11       0.0509
      5 N          -4.8614    4.1879   -2.3162 N.4     1  LIG11       0.2448
      6 C          -6.6137    2.4339   -1.9732 C.3     1  LIG11      -0.0039
      7 C          -5.3773    2.6372   -5.3118 C.ar    1  LIG11      -0.0313
      8 C          -4.1930    4.2940   -3.6706 C.3     1  LIG11      -0.0234
      9 O          -2.1088    2.6240   -2.6460 O.co2   1  LIG11      -0.5493
     10 O          -2.9443    0.7471   -1.6554 O.co2   1  LIG11      -0.5493
     11 C          -4.0225    4.8907   -1.2371 C.3     1  LIG11       0.0465
     12 C          -7.1554    1.1119   -1.3386 C.3     1  LIG11      -0.0298
     13 C          -6.4610    3.4977   -5.5326 C.ar    1  LIG11      -0.0122
     14 C          -5.2818    1.4461   -6.0881 C.ar    1  LIG11      -0.0124
     15 C          -4.7834    5.0697    0.0819 C.2     1  LIG11       0.2608
     16 C          -8.6805    1.2810   -1.0231 C.3     1  LIG11      -0.0479
     17 C          -7.0393   -0.0569   -2.3401 C.3     1  LIG11      -0.0596
     18 C          -6.3945    0.7268   -0.0589 C.3     1  LIG11      -0.0596
     19 C          -7.3871    3.1497   -6.4964 C.ar    1  LIG11       0.1702
     20 C          -6.2342    1.1129   -7.0597 C.ar    1  LIG11       0.1656
     21 N          -4.0600    5.4570    1.2041 N.am    1  LIG11      -0.2971
     22 O          -5.9992    4.8609    0.1161 O.2     1  LIG11      -0.2697
     23 C          -9.0311    2.2176    0.1433 C.3     1  LIG11      -0.0554
     24 C          -7.2812    1.9967   -7.2382 C.ar    1  LIG11       0.2075
     25 O          -8.4844    3.8855   -6.8240 O.3     1  LIG11      -0.4525
     26 O          -6.2253    0.0015   -7.8502 O.3     1  LIG11      -0.4913
     27 C          -2.7503    6.1205    1.1450 C.3     1  LIG11       0.0148
     28 C          -4.7301    5.4135    2.5079 C.3     1  LIG11       0.0148
     29 C         -10.5377    2.3163    0.3399 C.3     1  LIG11      -0.0653
     30 O          -8.3058    1.8689   -8.1285 O.3     1  LIG11      -0.4489
     31 C          -9.0549    3.0686   -7.8682 C.3     1  LIG11       0.2334
     32 C          -5.1386   -0.9009   -7.6877 C.3     1  LIG11       0.0790
     33 C          -2.9096    7.6444    1.2282 C.3     1  LIG11      -0.0374
     34 C          -4.8661    3.9767    3.0194 C.3     1  LIG11      -0.0374
     35 C          -1.6028    8.4072    1.0142 C.3     1  LIG11      -0.0545
     36 C          -5.3632    3.8940    4.4635 C.3     1  LIG11      -0.0545
     37 C          -1.1976    8.4811   -0.4498 C.3     1  LIG11      -0.0652
     38 C          -6.7499    4.4851    4.6629 C.3     1  LIG11      -0.0652
     39 H          -4.7278    0.9827   -3.3694 H       1  LIG11       0.0424
     40 H          -4.6833    2.5164   -0.9920 H       1  LIG11       0.0858
     41 H          -3.3329    2.7660   -4.8733 H       1  LIG11       0.0409
     42 H          -5.7763    4.6528   -2.3136 H       1  LIG11       0.2042
     43 H          -7.0288    2.5337   -2.9813 H       1  LIG11       0.0325
     44 H          -7.0555    3.2632   -1.4150 H       1  LIG11       0.0325
     45 H          -4.6904    5.0930   -4.2259 H       1  LIG11       0.0821
     46 H          -3.1553    4.6086   -3.5157 H       1  LIG11       0.0821
     47 H          -3.7837    5.8841   -1.6310 H       1  LIG11       0.0913
     48 H          -3.1175    4.3015   -1.0801 H       1  LIG11       0.0913
     49 H          -6.6143    4.4172   -4.9828 H       1  LIG11       0.0658
     50 H          -4.4322    0.7898   -5.9077 H       1  LIG11       0.0658
     51 H          -9.1090    0.2958   -0.7932 H       1  LIG11       0.0270
     52 H          -9.1938    1.6304   -1.9293 H       1  LIG11       0.0270
     53 H          -6.0044   -0.3780   -2.4790 H       1  LIG11       0.0235
     54 H          -7.4521    0.2133   -3.3184 H       1  LIG11       0.0235
     55 H          -7.5869   -0.9378   -1.9843 H       1  LIG11       0.0235
     56 H          -5.3740    0.3982   -0.2804 H       1  LIG11       0.0235
     57 H          -6.8911   -0.1019    0.4587 H       1  LIG11       0.0235
     58 H          -6.3258    1.5680    0.6385 H       1  LIG11       0.0235
     59 H          -8.6394    3.2243   -0.0267 H       1  LIG11       0.0263
     60 H          -8.5881    1.8482    1.0741 H       1  LIG11       0.0263
     61 H          -2.2367    5.8503    0.2207 H       1  LIG11       0.0464
     62 H          -2.1389    5.7461    1.9741 H       1  LIG11       0.0464
     63 H          -5.7150    5.8817    2.4032 H       1  LIG11       0.0464
     64 H          -4.1562    6.0063    3.2285 H       1  LIG11       0.0464
     65 H         -11.0246    2.7201   -0.5531 H       1  LIG11       0.0230
     66 H         -10.7660    2.9796    1.1805 H       1  LIG11       0.0230
     67 H         -10.9708    1.3345    0.5561 H       1  LIG11       0.0230
     68 H          -9.1017    3.6611   -8.7893 H       1  LIG11       0.1166
     69 H         -10.0744    2.7912   -7.5773 H       1  LIG11       0.1166
     70 H          -5.2795   -1.7247   -8.3940 H       1  LIG11       0.0660
     71 H          -5.1252   -1.3257   -6.6786 H       1  LIG11       0.0660
     72 H          -4.1854   -0.4175   -7.9268 H       1  LIG11       0.0660
     73 H          -3.2984    7.9065    2.2199 H       1  LIG11       0.0280
     74 H          -3.6626    7.9860    0.5070 H       1  LIG11       0.0280
     75 H          -3.8898    3.4788    2.9608 H       1  LIG11       0.0280
     76 H          -5.5398    3.4073    2.3680 H       1  LIG11       0.0280
     77 H          -0.7965    7.9560    1.6033 H       1  LIG11       0.0263
     78 H          -1.7331    9.4314    1.3843 H       1  LIG11       0.0263
     79 H          -4.6539    4.3989    5.1296 H       1  LIG11       0.0263
     80 H          -5.3840    2.8398    4.7643 H       1  LIG11       0.0263
     81 H          -0.9939    7.4895   -0.8628 H       1  LIG11       0.0230
     82 H          -0.2911    9.0849   -0.5589 H       1  LIG11       0.0230
     83 H          -1.9859    8.9486   -1.0493 H       1  LIG11       0.0230
     84 H          -6.7500    5.5671    4.5004 H       1  LIG11       0.0230
     85 H          -7.0908    4.3053    5.6875 H       1  LIG11       0.0230
     86 H          -7.4736    4.0312    3.9789 H       1  LIG11       0.0230
@<TRIPOS>BOND
     1     1     2    1
     2     1     3    1
     3     1     4    1
     4     2     5    1
     5     2     6    1
     6     3     8    1
     7     3     7    1
     8     4    10   ar
     9     4     9   ar
    10     5     8    1
    11     5    11    1
    12     6    12    1
    13     7    14   ar
    14     7    13   ar
    15    11    15    1
    16    12    18    1
    17    12    17    1
    18    12    16    1
    19    13    19   ar
    20    14    20   ar
    21    15    22    2
    22    15    21   am
    23    16    23    1
    24    19    25    1
    25    19    24   ar
    26    20    24   ar
    27    20    26    1
    28    21    28    1
    29    21    27    1
    30    23    29    1
    31    24    30    1
    32    25    31    1
    33    26    32    1
    34    27    33    1
    35    28    34    1
    36    30    31    1
    37    33    35    1
    38    34    36    1
    39    35    37    1
    40    36    38    1
    41     1    39    1
    42     2    40    1
    43     3    41    1
    44     5    42    1
    45     6    43    1
    46     6    44    1
    47     8    45    1
    48     8    46    1
    49    11    47    1
    50    11    48    1
    51    13    49    1
    52    14    50    1
    53    16    51    1
    54    16    52    1
    55    17    53    1
    56    17    54    1
    57    17    55    1
    58    18    56    1
    59    18    57    1
    60    18    58    1
    61    23    59    1
    62    23    60    1
    63    27    61    1
    64    27    62    1
    65    28    63    1
    66    28    64    1
    67    29    65    1
    68    29    66    1
    69    29    67    1
    70    31    68    1
    71    31    69    1
    72    32    70    1
    73    32    71    1
    74    32    72    1
    75    33    73    1
    76    33    74    1
    77    34    75    1
    78    34    76    1
    79    35    77    1
    80    35    78    1
    81    36    79    1
    82    36    80    1
    83    37    81    1
    84    37    82    1
    85    37    83    1
    86    38    84    1
    87    38    85    1
    88    38    86    1
@<TRIPOS>MOLECULE
../1EDN/PCA3_17-21.pdb
 47 48 0 0 0
SMALL
GASTEIGER

@<TRIPOS>ATOM
      1  N         -4.2370    0.0490   -1.5930 N.3    17  LEU17      -0.1231
      2  CA        -5.5250   -0.5610   -1.9200 C.3    17  LEU17       0.1693
      3  CB        -5.7360   -1.8160   -1.1010 C.3    17  LEU17       0.0284
      4  CG        -6.9950   -2.5690   -1.5730 C.3    17  LEU17       0.0019
      5  CD1       -6.7530   -3.1800   -3.0080 C.3    17  LEU17       0.0001
      6  CD2       -7.2580   -3.7400   -0.6960 C.3    17  LEU17       0.0001
      7  C         -6.6810    0.4320   -1.9250 C.2    17  LEU17       0.2592
      8  O         -7.3270    0.6200   -2.9560 O.2    17  LEU17      -0.2718
      9  N         -6.9500    1.1080   -0.7900 N.am   18  ASP18      -0.1960
     10  CA        -8.0880    2.0070   -0.5710 C.3    18  ASP18       0.1840
     11  CB        -9.1090    1.3410    0.3760 C.3    18  ASP18       0.1450
     12  CG       -10.1470    2.2990    0.9520 C.2    18  ASP18       0.3671
     13  OD1      -11.0720    2.5310    0.1500 O.co2  18  ASP18      -0.2456
     14  OD2      -10.1960    2.6850    2.1610 O.co2  18  ASP18      -0.2456
     15  C         -7.6280    3.3500    0.0060 C.2    18  ASP18       0.2622
     16  O         -7.9950    4.4650   -0.3580 O.2    18  ASP18      -0.2715
     17  N         -6.8140    3.2050    1.0390 N.am   19  ILE19      -0.1963
     18  CA        -6.1800    4.3790    1.8160 C.3    19  ILE19       0.1727
     19  CB        -5.3140    3.8890    3.0670 C.3    19  ILE19       0.0290
     20  CG2       -4.6600    5.0630    3.8540 C.3    19  ILE19       0.0023
     21  CG1       -6.1440    2.9790    3.9890 C.3    19  ILE19       0.0022
     22  CD1       -5.5170    2.2940    5.2130 C.3    19  ILE19       0.0001
     23  C         -5.2670    5.2520    0.8640 C.2    19  ILE19       0.2616
     24  O         -5.3920    6.4650    0.9090 O.2    19  ILE19      -0.2715
     25  N         -4.4890    4.6060    0.0020 N.am   20  ILE20      -0.1963
     26  CA        -3.9690    5.2910   -1.1850 C.3    20  ILE20       0.1727
     27  CB        -2.4460    5.7340   -1.0120 C.3    20  ILE20       0.0290
     28  CG2       -2.3030    7.0110   -0.1100 C.3    20  ILE20       0.0023
     29  CG1       -1.4300    4.6170   -0.6100 C.3    20  ILE20       0.0022
     30  CD1        0.0800    4.9990   -0.7110 C.3    20  ILE20       0.0001
     31  C         -4.1660    4.3690   -2.4130 C.2    20  ILE20       0.2617
     32  O         -3.9200    3.1710   -2.5010 O.2    20  ILE20      -0.2715
     33  N         -4.6410    5.0460   -3.5090 N.am   21  TRP21      -0.1938
     34  CA        -4.8980    4.4430   -4.8120 C.3    21  TRP21       0.2021
     35  CB        -6.2680    3.7450   -4.8170 C.3    21  TRP21       0.0612
     36  CG        -6.5090    2.9660   -6.0890 C.ar   21  TRP21       0.0007
     37  CD1       -7.0550    3.4090   -7.2190 C.ar   21  TRP21       0.0946
     38  NE1       -7.1560    2.4190   -8.1260 N.ar   21  TRP21      -0.2442
     39  CE2       -6.6880    1.2600   -7.6470 C.ar   21  TRP21       0.0810
     40  CZ2       -6.5320   -0.1050   -8.0600 C.ar   21  TRP21       0.0191
     41  CH2       -5.9630   -1.0770   -7.2340 C.ar   21  TRP21       0.0015
     42  CZ3       -5.4330   -0.7150   -5.9030 C.ar   21  TRP21       0.0001
     43  CE3       -5.5290    0.6400   -5.5430 C.ar   21  TRP21       0.0012
     44  CD2       -6.2440    1.5830   -6.3190 C.ar   21  TRP21       0.0152
     45  C         -4.7460    5.5030   -5.9410 C.2    21  TRP21       0.3845
     46  O         -5.6740    6.3580   -6.0770 O.co2  21  TRP21      -0.2437
     47  OXT       -3.7150    5.4030   -6.6310 O.co2  21  TRP21      -0.2437
@<TRIPOS>BOND
     1    38    39   ar
     2    38    37   ar
     3    40    39   ar
     4    40    41   ar
     5    39    44   ar
     6    41    42   ar
     7    37    36   ar
     8    47    45   ar
     9    44    36   ar
    10    44    43   ar
    11    36    35    1
    12    46    45   ar
    13    45    34    1
    14    42    43   ar
    15    35    34    1
    16    34    33    1
    17    33    31   am
    18     5     4    1
    19     8     7    2
    20    32    31    2
    21    31    26    1
    22     7     2    1
    23     7     9   am
    24     2     1    1
    25     2     3    1
    26     4     3    1
    27     4     6    1
    28    26    27    1
    29    26    25    1
    30    27    29    1
    31    27    28    1
    32     9    10    1
    33    30    29    1
    34    10    15    1
    35    10    11    1
    36    16    15    2
    37    25    23   am
    38    15    17   am
    39    13    12   ar
    40    11    12    1
    41    23    24    2
    42    23    18    1
    43    12    14   ar
    44    17    18    1
    45    18    19    1
    46    19    20    1
    47    19    21    1
    48    21    22    1
