@<TRIPOS>MOLECULE
*****
 43 45 0 0 0
SMALL
GASTEIGER

@<TRIPOS>ATOM
      1 BR         -8.5314   -0.7507   -2.1917 Br      1  LIG11      -0.0503
      2 BR         -7.6669    2.0713   -7.2823 Br      1  LIG11      -0.0472
      3 S          -5.9891    2.5874    3.9171 S.O2    1  LIG11       0.1079
      4 O          -4.9431    4.9524   -1.2673 O.3     1  LIG11      -0.4724
      5 O          -6.7875    1.4443    4.2896 O.2     1  LIG11      -0.1383
      6 O          -5.3197    3.3907    4.9024 O.2     1  LIG11      -0.1383
      7 O          -3.4390    3.7573   -3.4499 O.3     1  LIG11      -0.4590
      8 N          -4.7958    2.0297    2.8961 N.3     1  LIG11      -0.1906
      9 N          -6.9083    3.5731    2.9356 N.pl3   1  LIG11      -0.1891
     10 N          -5.7344    5.5160    2.7010 N.ar    1  LIG11      -0.2186
     11 N          -4.6549    6.1540    0.6927 N.ar    1  LIG11      -0.2008
     12 N          -5.5381    4.1743   -4.4299 N.ar    1  LIG11      -0.2022
     13 N          -4.2080    2.2862   -5.0237 N.ar    1  LIG11      -0.2022
     14 C          -5.9991    4.1242    0.7100 C.ar    1  LIG11       0.0848
     15 C          -6.1995    4.4339    2.0561 C.ar    1  LIG11       0.1532
     16 C          -6.5998    2.9504    0.0211 C.ar    1  LIG11      -0.0094
     17 C          -5.1789    5.0625    0.0893 C.ar    1  LIG11       0.2276
     18 C          -5.8817    2.1981   -0.9293 C.ar    1  LIG11      -0.0527
     19 C          -7.9228    2.5374    0.2820 C.ar    1  LIG11      -0.0527
     20 C          -3.6060    5.3327   -1.6158 C.3     1  LIG11       0.1252
     21 C          -6.4553    1.1079   -1.5965 C.ar    1  LIG11      -0.0472
     22 C          -8.4929    1.4308   -0.3580 C.ar    1  LIG11      -0.0472
     23 C          -4.9722    6.3306    1.9752 C.ar    1  LIG11       0.1219
     24 C          -3.3923    5.1460   -3.1160 C.3     1  LIG11       0.1267
     25 C          -7.7579    0.7257   -1.3030 C.ar    1  LIG11       0.0179
     26 C          -4.4313    3.4189   -4.3394 C.ar    1  LIG11       0.3180
     27 C          -6.4782    3.7505   -5.3013 C.ar    1  LIG11       0.0483
     28 C          -5.1769    1.9146   -5.8881 C.ar    1  LIG11       0.0483
     29 C          -6.3450    2.6179   -6.0682 C.ar    1  LIG11       0.0543
     30 H          -4.0017    2.6693    2.9502 H       1  LIG11       0.1456
     31 H          -4.5249    1.0929    3.1920 H       1  LIG11       0.1456
     32 H          -7.4728    4.1446    3.5630 H       1  LIG11       0.1763
     33 H          -4.8526    2.4504   -1.1749 H       1  LIG11       0.0624
     34 H          -8.5405    3.0751    0.9989 H       1  LIG11       0.0624
     35 H          -3.4272    6.3880   -1.3784 H       1  LIG11       0.0731
     36 H          -2.8986    4.7003   -1.0640 H       1  LIG11       0.0731
     37 H          -5.8701    0.5708   -2.3388 H       1  LIG11       0.0629
     38 H          -9.5093    1.1351   -0.1098 H       1  LIG11       0.0629
     39 H          -4.5719    7.2093    2.4689 H       1  LIG11       0.1049
     40 H          -2.3835    5.4914   -3.3699 H       1  LIG11       0.0732
     41 H          -4.0878    5.7740   -3.6839 H       1  LIG11       0.0732
     42 H          -7.3630    4.3778   -5.3584 H       1  LIG11       0.0843
     43 H          -4.9687    1.0050   -6.4442 H       1  LIG11       0.0843
@<TRIPOS>BOND
     1     1    25    1
     2     2    29    1
     3     3     9    1
     4     3     8    1
     5     3     6    2
     6     3     5    2
     7     4    17    1
     8     4    20    1
     9     7    24    1
    10     7    26    1
    11     9    15    1
    12    10    15   ar
    13    10    23   ar
    14    11    17   ar
    15    11    23   ar
    16    12    26   ar
    17    12    27   ar
    18    13    26   ar
    19    13    28   ar
    20    14    15   ar
    21    14    17   ar
    22    16    18   ar
    23    16    19   ar
    24    16    14    1
    25    18    21   ar
    26    19    22   ar
    27    20    24    1
    28    21    25   ar
    29    22    25   ar
    30    27    29   ar
    31    28    29   ar
    32     8    30    1
    33     8    31    1
    34     9    32    1
    35    18    33    1
    36    19    34    1
    37    20    35    1
    38    20    36    1
    39    21    37    1
    40    22    38    1
    41    23    39    1
    42    24    40    1
    43    24    41    1
    44    27    42    1
    45    28    43    1
@<TRIPOS>MOLECULE
../1EDN/PCA3_17-21.pdb
 47 48 0 0 0
SMALL
GASTEIGER

@<TRIPOS>ATOM
      1  N         -4.2370    0.0490   -1.5930 N.3    17  LEU17      -0.1231
      2  CA        -5.5250   -0.5610   -1.9200 C.3    17  LEU17       0.1693
      3  CB        -5.7360   -1.8160   -1.1010 C.3    17  LEU17       0.0284
      4  CG        -6.9950   -2.5690   -1.5730 C.3    17  LEU17       0.0019
      5  CD1       -6.7530   -3.1800   -3.0080 C.3    17  LEU17       0.0001
      6  CD2       -7.2580   -3.7400   -0.6960 C.3    17  LEU17       0.0001
      7  C         -6.6810    0.4320   -1.9250 C.2    17  LEU17       0.2592
      8  O         -7.3270    0.6200   -2.9560 O.2    17  LEU17      -0.2718
      9  N         -6.9500    1.1080   -0.7900 N.am   18  ASP18      -0.1960
     10  CA        -8.0880    2.0070   -0.5710 C.3    18  ASP18       0.1840
     11  CB        -9.1090    1.3410    0.3760 C.3    18  ASP18       0.1450
     12  CG       -10.1470    2.2990    0.9520 C.2    18  ASP18       0.3671
     13  OD1      -11.0720    2.5310    0.1500 O.co2  18  ASP18      -0.2456
     14  OD2      -10.1960    2.6850    2.1610 O.co2  18  ASP18      -0.2456
     15  C         -7.6280    3.3500    0.0060 C.2    18  ASP18       0.2622
     16  O         -7.9950    4.4650   -0.3580 O.2    18  ASP18      -0.2715
     17  N         -6.8140    3.2050    1.0390 N.am   19  ILE19      -0.1963
     18  CA        -6.1800    4.3790    1.8160 C.3    19  ILE19       0.1727
     19  CB        -5.3140    3.8890    3.0670 C.3    19  ILE19       0.0290
     20  CG2       -4.6600    5.0630    3.8540 C.3    19  ILE19       0.0023
     21  CG1       -6.1440    2.9790    3.9890 C.3    19  ILE19       0.0022
     22  CD1       -5.5170    2.2940    5.2130 C.3    19  ILE19       0.0001
     23  C         -5.2670    5.2520    0.8640 C.2    19  ILE19       0.2616
     24  O         -5.3920    6.4650    0.9090 O.2    19  ILE19      -0.2715
     25  N         -4.4890    4.6060    0.0020 N.am   20  ILE20      -0.1963
     26  CA        -3.9690    5.2910   -1.1850 C.3    20  ILE20       0.1727
     27  CB        -2.4460    5.7340   -1.0120 C.3    20  ILE20       0.0290
     28  CG2       -2.3030    7.0110   -0.1100 C.3    20  ILE20       0.0023
     29  CG1       -1.4300    4.6170   -0.6100 C.3    20  ILE20       0.0022
     30  CD1        0.0800    4.9990   -0.7110 C.3    20  ILE20       0.0001
     31  C         -4.1660    4.3690   -2.4130 C.2    20  ILE20       0.2617
     32  O         -3.9200    3.1710   -2.5010 O.2    20  ILE20      -0.2715
     33  N         -4.6410    5.0460   -3.5090 N.am   21  TRP21      -0.1938
     34  CA        -4.8980    4.4430   -4.8120 C.3    21  TRP21       0.2021
     35  CB        -6.2680    3.7450   -4.8170 C.3    21  TRP21       0.0612
     36  CG        -6.5090    2.9660   -6.0890 C.ar   21  TRP21       0.0007
     37  CD1       -7.0550    3.4090   -7.2190 C.ar   21  TRP21       0.0946
     38  NE1       -7.1560    2.4190   -8.1260 N.ar   21  TRP21      -0.2442
     39  CE2       -6.6880    1.2600   -7.6470 C.ar   21  TRP21       0.0810
     40  CZ2       -6.5320   -0.1050   -8.0600 C.ar   21  TRP21       0.0191
     41  CH2       -5.9630   -1.0770   -7.2340 C.ar   21  TRP21       0.0015
     42  CZ3       -5.4330   -0.7150   -5.9030 C.ar   21  TRP21       0.0001
     43  CE3       -5.5290    0.6400   -5.5430 C.ar   21  TRP21       0.0012
     44  CD2       -6.2440    1.5830   -6.3190 C.ar   21  TRP21       0.0152
     45  C         -4.7460    5.5030   -5.9410 C.2    21  TRP21       0.3845
     46  O         -5.6740    6.3580   -6.0770 O.co2  21  TRP21      -0.2437
     47  OXT       -3.7150    5.4030   -6.6310 O.co2  21  TRP21      -0.2437
@<TRIPOS>BOND
     1    38    39   ar
     2    38    37   ar
     3    40    39   ar
     4    40    41   ar
     5    39    44   ar
     6    41    42   ar
     7    37    36   ar
     8    47    45   ar
     9    44    36   ar
    10    44    43   ar
    11    36    35    1
    12    46    45   ar
    13    45    34    1
    14    42    43   ar
    15    35    34    1
    16    34    33    1
    17    33    31   am
    18     5     4    1
    19     8     7    2
    20    32    31    2
    21    31    26    1
    22     7     2    1
    23     7     9   am
    24     2     1    1
    25     2     3    1
    26     4     3    1
    27     4     6    1
    28    26    27    1
    29    26    25    1
    30    27    29    1
    31    27    28    1
    32     9    10    1
    33    30    29    1
    34    10    15    1
    35    10    11    1
    36    16    15    2
    37    25    23   am
    38    15    17   am
    39    13    12   ar
    40    11    12    1
    41    23    24    2
    42    23    18    1
    43    12    14   ar
    44    17    18    1
    45    18    19    1
    46    19    20    1
    47    19    21    1
    48    21    22    1
