@<TRIPOS>MOLECULE
9911482
 51 53 0 0 0
SMALL
GASTEIGER

@<TRIPOS>ATOM
      1 S          -8.5208    2.1587   -0.5731 S.O2    1  LIG11       0.0758
      2 S          -4.9960    0.2328   -1.9839 S.2     1  LIG11      -0.0902
      3 O          -7.6762    2.9791    2.3105 O.2     1  LIG11      -0.3377
      4 O          -9.1038    2.3387   -1.8843 O.2     1  LIG11      -0.1499
      5 O          -9.2272    1.4659    0.4815 O.2     1  LIG11      -0.1499
      6 O          -6.4522    3.7749   -2.2324 O.2     1  LIG11      -0.2692
      7 O          -7.6508    2.2535   -7.4114 O.2     1  LIG11      -0.2923
      8 N          -5.5396    2.4926   -3.9253 N.am    1  LIG11      -0.2802
      9 N          -7.9268    3.6445   -0.0459 N.pl3   1  LIG11      -0.1831
     10 N          -6.7299    3.0785    3.3095 N.ar    1  LIG11      -0.0810
     11 C          -5.4037    3.4958   -4.9155 C.ar    1  LIG11       0.0471
     12 C          -7.1399    1.1501   -0.9193 C.ar    1  LIG11       0.1277
     13 C          -4.7373    4.7127   -4.6288 C.ar    1  LIG11      -0.0283
     14 C          -5.9009    3.2865   -6.2236 C.ar    1  LIG11       0.0388
     15 C          -6.1789    1.4722   -1.8628 C.ar    1  LIG11       0.1007
     16 C          -5.1766    5.5223   -6.8963 C.ar    1  LIG11      -0.0494
     17 C          -4.6560    5.7150   -5.6178 C.ar    1  LIG11      -0.0541
     18 C          -5.7944    4.3064   -7.1898 C.ar    1  LIG11      -0.0466
     19 C          -6.0669    2.6899   -2.6598 C.2     1  LIG11       0.2568
     20 C          -7.2112    3.5671    1.1763 C.ar    1  LIG11       0.2399
     21 C          -6.8844   -0.1008   -0.2796 C.ar    1  LIG11      -0.0273
     22 C          -5.9421    4.0582    1.4034 C.ar    1  LIG11       0.0350
     23 C          -4.0635    5.0225   -3.3165 C.3     1  LIG11      -0.0379
     24 C          -6.6730    2.0920   -6.6821 C.2     1  LIG11       0.1619
     25 C          -5.6948    3.7259    2.7654 C.ar    1  LIG11       0.0854
     26 C          -5.7427   -0.6999   -0.7623 C.ar    1  LIG11      -0.0217
     27 C          -5.0991    6.5976   -7.9398 C.3     1  LIG11      -0.0397
     28 C          -5.0165    4.7079    0.4483 C.3     1  LIG11      -0.0330
     29 C          -4.4786    3.9715    3.5743 C.3     1  LIG11      -0.0188
     30 C          -6.2337    0.7060   -6.2989 C.3     1  LIG11      -0.0013
     31 H          -5.5670    1.5290   -4.2176 H       1  LIG11       0.1552
     32 H          -7.4482    4.1175   -0.8231 H       1  LIG11       0.1768
     33 H          -4.1664    6.6598   -5.3813 H       1  LIG11       0.0623
     34 H          -6.2223    4.1551   -8.1819 H       1  LIG11       0.0628
     35 H          -7.5083   -0.5369    0.4942 H       1  LIG11       0.0643
     36 H          -3.7546    4.1176   -2.7866 H       1  LIG11       0.0278
     37 H          -3.1464    5.5994   -3.4847 H       1  LIG11       0.0278
     38 H          -4.7266    5.6173   -2.6818 H       1  LIG11       0.0278
     39 H          -5.3132   -1.6458   -0.4576 H       1  LIG11       0.0694
     40 H          -4.5248    7.4605   -7.5868 H       1  LIG11       0.0278
     41 H          -4.6062    6.2162   -8.8401 H       1  LIG11       0.0278
     42 H          -6.1047    6.9438   -8.1992 H       1  LIG11       0.0278
     43 H          -5.5467    5.3991   -0.2131 H       1  LIG11       0.0280
     44 H          -4.2371    5.2764    0.9627 H       1  LIG11       0.0280
     45 H          -4.5227    3.9469   -0.1657 H       1  LIG11       0.0280
     46 H          -4.7092    3.9889    4.6442 H       1  LIG11       0.0294
     47 H          -3.7425    3.1818    3.3941 H       1  LIG11       0.0294
     48 H          -4.0229    4.9329    3.3189 H       1  LIG11       0.0294
     49 H          -6.4378    0.0277   -7.1331 H       1  LIG11       0.0309
     50 H          -5.1586    0.6675   -6.1075 H       1  LIG11       0.0309
     51 H          -6.8007    0.3666   -5.4280 H       1  LIG11       0.0309
@<TRIPOS>BOND
     1     1     4    2
     2     1     5    2
     3     1     9    1
     4     1    12    1
     5     2    15   ar
     6     2    26   ar
     7     3    10   ar
     8     3    20   ar
     9     6    19    2
    10     7    24    2
    11     8    11    1
    12     8    19   am
    13     9    20    1
    14    10    25   ar
    15    11    13   ar
    16    11    14   ar
    17    12    15   ar
    18    12    21   ar
    19    13    17   ar
    20    13    23    1
    21    14    18   ar
    22    14    24    1
    23    15    19    1
    24    16    17   ar
    25    16    18   ar
    26    16    27    1
    27    20    22   ar
    28    21    26   ar
    29    22    25   ar
    30    22    28    1
    31    24    30    1
    32    25    29    1
    33     8    31    1
    34     9    32    1
    35    17    33    1
    36    18    34    1
    37    21    35    1
    38    23    36    1
    39    23    37    1
    40    23    38    1
    41    26    39    1
    42    27    40    1
    43    27    41    1
    44    27    42    1
    45    28    43    1
    46    28    44    1
    47    28    45    1
    48    29    46    1
    49    29    47    1
    50    29    48    1
    51    30    49    1
    52    30    50    1
    53    30    51    1
@<TRIPOS>MOLECULE
../1EDN/PCA3_17-21.pdb
 47 48 0 0 0
SMALL
GASTEIGER

@<TRIPOS>ATOM
      1  N         -4.2370    0.0490   -1.5930 N.3    17  LEU17      -0.1231
      2  CA        -5.5250   -0.5610   -1.9200 C.3    17  LEU17       0.1693
      3  CB        -5.7360   -1.8160   -1.1010 C.3    17  LEU17       0.0284
      4  CG        -6.9950   -2.5690   -1.5730 C.3    17  LEU17       0.0019
      5  CD1       -6.7530   -3.1800   -3.0080 C.3    17  LEU17       0.0001
      6  CD2       -7.2580   -3.7400   -0.6960 C.3    17  LEU17       0.0001
      7  C         -6.6810    0.4320   -1.9250 C.2    17  LEU17       0.2592
      8  O         -7.3270    0.6200   -2.9560 O.2    17  LEU17      -0.2718
      9  N         -6.9500    1.1080   -0.7900 N.am   18  ASP18      -0.1960
     10  CA        -8.0880    2.0070   -0.5710 C.3    18  ASP18       0.1840
     11  CB        -9.1090    1.3410    0.3760 C.3    18  ASP18       0.1450
     12  CG       -10.1470    2.2990    0.9520 C.2    18  ASP18       0.3671
     13  OD1      -11.0720    2.5310    0.1500 O.co2  18  ASP18      -0.2456
     14  OD2      -10.1960    2.6850    2.1610 O.co2  18  ASP18      -0.2456
     15  C         -7.6280    3.3500    0.0060 C.2    18  ASP18       0.2622
     16  O         -7.9950    4.4650   -0.3580 O.2    18  ASP18      -0.2715
     17  N         -6.8140    3.2050    1.0390 N.am   19  ILE19      -0.1963
     18  CA        -6.1800    4.3790    1.8160 C.3    19  ILE19       0.1727
     19  CB        -5.3140    3.8890    3.0670 C.3    19  ILE19       0.0290
     20  CG2       -4.6600    5.0630    3.8540 C.3    19  ILE19       0.0023
     21  CG1       -6.1440    2.9790    3.9890 C.3    19  ILE19       0.0022
     22  CD1       -5.5170    2.2940    5.2130 C.3    19  ILE19       0.0001
     23  C         -5.2670    5.2520    0.8640 C.2    19  ILE19       0.2616
     24  O         -5.3920    6.4650    0.9090 O.2    19  ILE19      -0.2715
     25  N         -4.4890    4.6060    0.0020 N.am   20  ILE20      -0.1963
     26  CA        -3.9690    5.2910   -1.1850 C.3    20  ILE20       0.1727
     27  CB        -2.4460    5.7340   -1.0120 C.3    20  ILE20       0.0290
     28  CG2       -2.3030    7.0110   -0.1100 C.3    20  ILE20       0.0023
     29  CG1       -1.4300    4.6170   -0.6100 C.3    20  ILE20       0.0022
     30  CD1        0.0800    4.9990   -0.7110 C.3    20  ILE20       0.0001
     31  C         -4.1660    4.3690   -2.4130 C.2    20  ILE20       0.2617
     32  O         -3.9200    3.1710   -2.5010 O.2    20  ILE20      -0.2715
     33  N         -4.6410    5.0460   -3.5090 N.am   21  TRP21      -0.1938
     34  CA        -4.8980    4.4430   -4.8120 C.3    21  TRP21       0.2021
     35  CB        -6.2680    3.7450   -4.8170 C.3    21  TRP21       0.0612
     36  CG        -6.5090    2.9660   -6.0890 C.ar   21  TRP21       0.0007
     37  CD1       -7.0550    3.4090   -7.2190 C.ar   21  TRP21       0.0946
     38  NE1       -7.1560    2.4190   -8.1260 N.ar   21  TRP21      -0.2442
     39  CE2       -6.6880    1.2600   -7.6470 C.ar   21  TRP21       0.0810
     40  CZ2       -6.5320   -0.1050   -8.0600 C.ar   21  TRP21       0.0191
     41  CH2       -5.9630   -1.0770   -7.2340 C.ar   21  TRP21       0.0015
     42  CZ3       -5.4330   -0.7150   -5.9030 C.ar   21  TRP21       0.0001
     43  CE3       -5.5290    0.6400   -5.5430 C.ar   21  TRP21       0.0012
     44  CD2       -6.2440    1.5830   -6.3190 C.ar   21  TRP21       0.0152
     45  C         -4.7460    5.5030   -5.9410 C.2    21  TRP21       0.3845
     46  O         -5.6740    6.3580   -6.0770 O.co2  21  TRP21      -0.2437
     47  OXT       -3.7150    5.4030   -6.6310 O.co2  21  TRP21      -0.2437
@<TRIPOS>BOND
     1    38    39   ar
     2    38    37   ar
     3    40    39   ar
     4    40    41   ar
     5    39    44   ar
     6    41    42   ar
     7    37    36   ar
     8    47    45   ar
     9    44    36   ar
    10    44    43   ar
    11    36    35    1
    12    46    45   ar
    13    45    34    1
    14    42    43   ar
    15    35    34    1
    16    34    33    1
    17    33    31   am
    18     5     4    1
    19     8     7    2
    20    32    31    2
    21    31    26    1
    22     7     2    1
    23     7     9   am
    24     2     1    1
    25     2     3    1
    26     4     3    1
    27     4     6    1
    28    26    27    1
    29    26    25    1
    30    27    29    1
    31    27    28    1
    32     9    10    1
    33    30    29    1
    34    10    15    1
    35    10    11    1
    36    16    15    2
    37    25    23   am
    38    15    17   am
    39    13    12   ar
    40    11    12    1
    41    23    24    2
    42    23    18    1
    43    12    14   ar
    44    17    18    1
    45    18    19    1
    46    19    20    1
    47    19    21    1
    48    21    22    1
