@<TRIPOS>MOLECULE
3047752
 70 74 0 0 0
SMALL
GASTEIGER

@<TRIPOS>ATOM
      1 O          -9.3689    3.8477   -0.4384 O.co2   1  LIG11      -0.5495
      2 O          -9.5463    2.0887    1.0030 O.co2   1  LIG11      -0.5495
      3 O          -6.0813    5.8577    5.3006 O.3     1  LIG11      -0.4526
      4 O          -5.1939    3.8018    6.2067 O.3     1  LIG11      -0.4526
      5 O          -5.9504   -3.0690   -2.5004 O.3     1  LIG11      -0.4951
      6 O          -5.2636    1.2682   -6.4143 O.co2   1  LIG11      -0.5495
      7 O          -6.2626   -0.7584   -6.7201 O.co2   1  LIG11      -0.5495
      8 N          -4.7575    3.3664   -2.2827 N.ar    1  LIG11      -0.2556
      9 C          -7.4099    2.6486    0.1824 C.3     1  LIG11       0.0217
     10 C          -6.8906    2.4560   -1.2749 C.3     1  LIG11       0.0357
     11 C          -6.7453    3.9252    0.7711 C.3     1  LIG11       0.0199
     12 C          -5.5799    4.1455   -0.1602 C.ar    1  LIG11      -0.0174
     13 C          -5.6463    3.3255   -1.2719 C.ar    1  LIG11       0.0534
     14 C          -6.6042    1.0053   -1.6954 C.ar    1  LIG11      -0.0344
     15 C          -6.3155    3.8274    2.2323 C.ar    1  LIG11      -0.0356
     16 C          -8.9174    2.8724    0.2351 C.2     1  LIG11       0.0466
     17 C          -4.5598    5.0821   -0.0760 C.ar    1  LIG11      -0.0546
     18 C          -6.8435    0.5307   -3.0141 C.ar    1  LIG11      -0.0395
     19 C          -6.0364    0.1089   -0.7644 C.ar    1  LIG11      -0.0542
     20 C          -3.7582    4.2704   -2.1947 C.ar    1  LIG11       0.0416
     21 C          -6.4452    4.9575    3.0610 C.ar    1  LIG11      -0.0124
     22 C          -3.6304    5.1453   -1.1133 C.ar    1  LIG11      -0.0401
     23 C          -5.7506    2.6478    2.7747 C.ar    1  LIG11      -0.0543
     24 C          -7.2602    1.4783   -4.1398 C.3     1  LIG11      -0.0196
     25 C          -6.6475   -0.8414   -3.2815 C.ar    1  LIG11      -0.0165
     26 C          -2.8099    4.3272   -3.3634 C.3     1  LIG11      -0.0104
     27 C          -7.4719    0.9067   -5.5555 C.3     1  LIG11      -0.0003
     28 C          -6.0380    4.8588    4.3762 C.ar    1  LIG11       0.1665
     29 C          -5.8233   -1.2352   -1.0688 C.ar    1  LIG11      -0.0197
     30 C          -5.3695    2.5678    4.1173 C.ar    1  LIG11      -0.0159
     31 C          -6.1620   -1.7269   -2.3194 C.ar    1  LIG11       0.1204
     32 C          -5.5241    3.6933    4.8916 C.ar    1  LIG11       0.1662
     33 C          -3.2201    5.3523   -4.4267 C.3     1  LIG11      -0.0479
     34 C          -8.0585    1.9705   -6.4896 C.3     1  LIG11      -0.0570
     35 C          -4.5372    5.0027   -5.1268 C.3     1  LIG11      -0.0556
     36 C          -6.1964    0.4299   -6.2798 C.2     1  LIG11       0.0449
     37 C          -5.5598    5.1723    6.4566 C.3     1  LIG11       0.2332
     38 C          -4.8705    6.0020   -6.2234 C.3     1  LIG11      -0.0653
     39 C          -6.5388   -3.6254   -3.6712 C.3     1  LIG11       0.0788
     40 H          -7.2208    1.7718    0.7979 H       1  LIG11       0.0379
     41 H          -7.6034    2.9055   -1.9753 H       1  LIG11       0.0419
     42 H          -7.4048    4.7964    0.6642 H       1  LIG11       0.0404
     43 H          -4.4971    5.7638    0.7650 H       1  LIG11       0.0622
     44 H          -5.7426    0.4492    0.2214 H       1  LIG11       0.0622
     45 H          -6.8587    5.8861    2.6803 H       1  LIG11       0.0658
     46 H          -2.8293    5.8741   -1.0858 H       1  LIG11       0.0636
     47 H          -5.6088    1.7707    2.1508 H       1  LIG11       0.0622
     48 H          -6.5161    2.2835   -4.1933 H       1  LIG11       0.0319
     49 H          -8.2130    1.9287   -3.8330 H       1  LIG11       0.0319
     50 H          -6.8550   -1.2114   -4.2782 H       1  LIG11       0.0657
     51 H          -2.7363    3.3311   -3.8172 H       1  LIG11       0.0328
     52 H          -1.8049    4.5683   -2.9959 H       1  LIG11       0.0328
     53 H          -8.1950    0.0819   -5.5094 H       1  LIG11       0.0361
     54 H          -5.4017   -1.8972   -0.3206 H       1  LIG11       0.0654
     55 H          -4.9668    1.6486    4.5262 H       1  LIG11       0.0655
     56 H          -2.4222    5.4027   -5.1779 H       1  LIG11       0.0269
     57 H          -3.2961    6.3497   -3.9771 H       1  LIG11       0.0269
     58 H          -7.4012    2.8430   -6.5787 H       1  LIG11       0.0236
     59 H          -9.0285    2.3178   -6.1201 H       1  LIG11       0.0236
     60 H          -8.2115    1.5646   -7.4958 H       1  LIG11       0.0236
     61 H          -5.3619    4.9942   -4.4068 H       1  LIG11       0.0263
     62 H          -4.4726    3.9990   -5.5619 H       1  LIG11       0.0263
     63 H          -6.3164    5.1956    7.2484 H       1  LIG11       0.1166
     64 H          -4.6706    5.7079    6.8077 H       1  LIG11       0.1166
     65 H          -4.9663    7.0130   -5.8156 H       1  LIG11       0.0230
     66 H          -5.8199    5.7367   -6.6996 H       1  LIG11       0.0230
     67 H          -4.0944    6.0128   -6.9953 H       1  LIG11       0.0230
     68 H          -6.3547   -4.7039   -3.6544 H       1  LIG11       0.0660
     69 H          -6.0778   -3.2298   -4.5827 H       1  LIG11       0.0660
     70 H          -7.6245   -3.4755   -3.6741 H       1  LIG11       0.0660
@<TRIPOS>BOND
     1     1    16   ar
     2     2    16   ar
     3     3    28    1
     4     3    37    1
     5     4    32    1
     6     4    37    1
     7     5    31    1
     8     5    39    1
     9     6    36   ar
    10     7    36   ar
    11     8    13   ar
    12     8    20   ar
    13     9    10    1
    14     9    11    1
    15     9    16    1
    16    10    13    1
    17    10    14    1
    18    11    12    1
    19    11    15    1
    20    12    13   ar
    21    12    17   ar
    22    14    18   ar
    23    14    19   ar
    24    15    21   ar
    25    15    23   ar
    26    17    22   ar
    27    18    24    1
    28    18    25   ar
    29    19    29   ar
    30    20    22   ar
    31    20    26    1
    32    21    28   ar
    33    23    30   ar
    34    24    27    1
    35    25    31   ar
    36    26    33    1
    37    27    34    1
    38    27    36    1
    39    28    32   ar
    40    29    31   ar
    41    30    32   ar
    42    33    35    1
    43    35    38    1
    44     9    40    1
    45    10    41    1
    46    11    42    1
    47    17    43    1
    48    19    44    1
    49    21    45    1
    50    22    46    1
    51    23    47    1
    52    24    48    1
    53    24    49    1
    54    25    50    1
    55    26    51    1
    56    26    52    1
    57    27    53    1
    58    29    54    1
    59    30    55    1
    60    33    56    1
    61    33    57    1
    62    34    58    1
    63    34    59    1
    64    34    60    1
    65    35    61    1
    66    35    62    1
    67    37    63    1
    68    37    64    1
    69    38    65    1
    70    38    66    1
    71    38    67    1
    72    39    68    1
    73    39    69    1
    74    39    70    1
@<TRIPOS>MOLECULE
../1EDN/PCA3_17-21.pdb
 47 48 0 0 0
SMALL
GASTEIGER

@<TRIPOS>ATOM
      1  N         -4.2370    0.0490   -1.5930 N.3    17  LEU17      -0.1231
      2  CA        -5.5250   -0.5610   -1.9200 C.3    17  LEU17       0.1693
      3  CB        -5.7360   -1.8160   -1.1010 C.3    17  LEU17       0.0284
      4  CG        -6.9950   -2.5690   -1.5730 C.3    17  LEU17       0.0019
      5  CD1       -6.7530   -3.1800   -3.0080 C.3    17  LEU17       0.0001
      6  CD2       -7.2580   -3.7400   -0.6960 C.3    17  LEU17       0.0001
      7  C         -6.6810    0.4320   -1.9250 C.2    17  LEU17       0.2592
      8  O         -7.3270    0.6200   -2.9560 O.2    17  LEU17      -0.2718
      9  N         -6.9500    1.1080   -0.7900 N.am   18  ASP18      -0.1960
     10  CA        -8.0880    2.0070   -0.5710 C.3    18  ASP18       0.1840
     11  CB        -9.1090    1.3410    0.3760 C.3    18  ASP18       0.1450
     12  CG       -10.1470    2.2990    0.9520 C.2    18  ASP18       0.3671
     13  OD1      -11.0720    2.5310    0.1500 O.co2  18  ASP18      -0.2456
     14  OD2      -10.1960    2.6850    2.1610 O.co2  18  ASP18      -0.2456
     15  C         -7.6280    3.3500    0.0060 C.2    18  ASP18       0.2622
     16  O         -7.9950    4.4650   -0.3580 O.2    18  ASP18      -0.2715
     17  N         -6.8140    3.2050    1.0390 N.am   19  ILE19      -0.1963
     18  CA        -6.1800    4.3790    1.8160 C.3    19  ILE19       0.1727
     19  CB        -5.3140    3.8890    3.0670 C.3    19  ILE19       0.0290
     20  CG2       -4.6600    5.0630    3.8540 C.3    19  ILE19       0.0023
     21  CG1       -6.1440    2.9790    3.9890 C.3    19  ILE19       0.0022
     22  CD1       -5.5170    2.2940    5.2130 C.3    19  ILE19       0.0001
     23  C         -5.2670    5.2520    0.8640 C.2    19  ILE19       0.2616
     24  O         -5.3920    6.4650    0.9090 O.2    19  ILE19      -0.2715
     25  N         -4.4890    4.6060    0.0020 N.am   20  ILE20      -0.1963
     26  CA        -3.9690    5.2910   -1.1850 C.3    20  ILE20       0.1727
     27  CB        -2.4460    5.7340   -1.0120 C.3    20  ILE20       0.0290
     28  CG2       -2.3030    7.0110   -0.1100 C.3    20  ILE20       0.0023
     29  CG1       -1.4300    4.6170   -0.6100 C.3    20  ILE20       0.0022
     30  CD1        0.0800    4.9990   -0.7110 C.3    20  ILE20       0.0001
     31  C         -4.1660    4.3690   -2.4130 C.2    20  ILE20       0.2617
     32  O         -3.9200    3.1710   -2.5010 O.2    20  ILE20      -0.2715
     33  N         -4.6410    5.0460   -3.5090 N.am   21  TRP21      -0.1938
     34  CA        -4.8980    4.4430   -4.8120 C.3    21  TRP21       0.2021
     35  CB        -6.2680    3.7450   -4.8170 C.3    21  TRP21       0.0612
     36  CG        -6.5090    2.9660   -6.0890 C.ar   21  TRP21       0.0007
     37  CD1       -7.0550    3.4090   -7.2190 C.ar   21  TRP21       0.0946
     38  NE1       -7.1560    2.4190   -8.1260 N.ar   21  TRP21      -0.2442
     39  CE2       -6.6880    1.2600   -7.6470 C.ar   21  TRP21       0.0810
     40  CZ2       -6.5320   -0.1050   -8.0600 C.ar   21  TRP21       0.0191
     41  CH2       -5.9630   -1.0770   -7.2340 C.ar   21  TRP21       0.0015
     42  CZ3       -5.4330   -0.7150   -5.9030 C.ar   21  TRP21       0.0001
     43  CE3       -5.5290    0.6400   -5.5430 C.ar   21  TRP21       0.0012
     44  CD2       -6.2440    1.5830   -6.3190 C.ar   21  TRP21       0.0152
     45  C         -4.7460    5.5030   -5.9410 C.2    21  TRP21       0.3845
     46  O         -5.6740    6.3580   -6.0770 O.co2  21  TRP21      -0.2437
     47  OXT       -3.7150    5.4030   -6.6310 O.co2  21  TRP21      -0.2437
@<TRIPOS>BOND
     1    38    39   ar
     2    38    37   ar
     3    40    39   ar
     4    40    41   ar
     5    39    44   ar
     6    41    42   ar
     7    37    36   ar
     8    47    45   ar
     9    44    36   ar
    10    44    43   ar
    11    36    35    1
    12    46    45   ar
    13    45    34    1
    14    42    43   ar
    15    35    34    1
    16    34    33    1
    17    33    31   am
    18     5     4    1
    19     8     7    2
    20    32    31    2
    21    31    26    1
    22     7     2    1
    23     7     9   am
    24     2     1    1
    25     2     3    1
    26     4     3    1
    27     4     6    1
    28    26    27    1
    29    26    25    1
    30    27    29    1
    31    27    28    1
    32     9    10    1
    33    30    29    1
    34    10    15    1
    35    10    11    1
    36    16    15    2
    37    25    23   am
    38    15    17   am
    39    13    12   ar
    40    11    12    1
    41    23    24    2
    42    23    18    1
    43    12    14   ar
    44    17    18    1
    45    18    19    1
    46    19    20    1
    47    19    21    1
    48    21    22    1
