@<TRIPOS>MOLECULE
01479498K
 57 61 0 0 0
SMALL
GASTEIGER

@<TRIPOS>ATOM
      1 C          -4.0189    3.2447   -2.4541 C.3     1  LIG11       0.1526
      2 C          -4.2061    4.1342   -1.2538 C.2     1  LIG11       0.0278
      3 C          -4.6316    3.7767   -3.7686 C.ar    1  LIG11       0.0009
      4 O          -4.4747    1.8843   -2.1969 O.3     1  LIG11      -0.4789
      5 C          -5.1755    3.9478   -0.3364 C.2     1  LIG11       0.0016
      6 C          -3.1094    5.1778   -1.0738 C.2     1  LIG11       0.0721
      7 C          -5.4694    2.9776   -4.5738 C.ar    1  LIG11      -0.0091
      8 C          -4.3172    5.0800   -4.2320 C.ar    1  LIG11      -0.0511
      9 C          -5.6434    1.7970   -1.4845 C.ar    1  LIG11       0.1298
     10 C          -6.0597    2.7907   -0.5964 C.ar    1  LIG11       0.0283
     11 C          -5.2838    4.8151    0.8543 C.ar    1  LIG11      -0.0165
     12 O          -3.4488    6.3726   -1.3001 O.co2   1  LIG11      -0.5448
     13 O          -1.9714    4.7011   -0.8003 O.co2   1  LIG11      -0.5448
     14 C          -5.9806    3.5062   -5.7424 C.ar    1  LIG11       0.1666
     15 C          -4.8473    5.5923   -5.4238 C.ar    1  LIG11      -0.0158
     16 C          -6.4046    0.6426   -1.6739 C.ar    1  LIG11      -0.0158
     17 C          -7.2857    2.6310    0.0705 C.ar    1  LIG11      -0.0087
     18 C          -4.7179    4.4124    2.0679 C.ar    1  LIG11      -0.0505
     19 C          -6.0048    6.0110    0.8003 C.ar    1  LIG11      -0.0505
     20 C          -5.6819    4.7810   -6.1542 C.ar    1  LIG11       0.1662
     21 O          -6.8111    2.8619   -6.6077 O.3     1  LIG11      -0.4526
     22 C          -7.6288    0.5072   -1.0220 C.ar    1  LIG11      -0.0164
     23 C          -8.0890    1.5150   -0.1752 C.ar    1  LIG11       0.1217
     24 C          -4.8969    5.1804    3.2243 C.ar    1  LIG11      -0.0194
     25 C          -6.1863    6.7738    1.9567 C.ar    1  LIG11      -0.0194
     26 O          -6.2878    5.1050   -7.3280 O.3     1  LIG11      -0.4526
     27 C          -7.0208    3.8929   -7.5920 C.3     1  LIG11       0.2332
     28 O          -9.3099    1.2864    0.3988 O.3     1  LIG11      -0.4893
     29 C          -5.6477    6.3565    3.1764 C.ar    1  LIG11       0.1201
     30 C         -10.1168    2.4378    0.6835 C.3     1  LIG11       0.0946
     31 O          -5.9226    7.1782    4.2367 O.3     1  LIG11      -0.4951
     32 C         -10.2716    2.5526    2.1955 C.3     1  LIG11      -0.0281
     33 C         -11.4719    2.2159    0.0181 C.3     1  LIG11      -0.0281
     34 C          -5.4589    6.7470    5.5088 C.3     1  LIG11       0.0788
     35 H          -2.9469    3.1216   -2.6546 H       1  LIG11       0.0837
     36 H          -5.7235    1.9608   -4.3001 H       1  LIG11       0.0659
     37 H          -3.6504    5.7207   -3.6563 H       1  LIG11       0.0623
     38 H          -4.6051    6.5973   -5.7482 H       1  LIG11       0.0655
     39 H          -6.0517   -0.1319   -2.3467 H       1  LIG11       0.0655
     40 H          -7.5951    3.3828    0.7875 H       1  LIG11       0.0661
     41 H          -4.1276    3.5000    2.1096 H       1  LIG11       0.0625
     42 H          -6.4110    6.3548   -0.1482 H       1  LIG11       0.0625
     43 H          -8.2331   -0.3802   -1.1879 H       1  LIG11       0.0655
     44 H          -4.4293    4.8312    4.1374 H       1  LIG11       0.0654
     45 H          -6.7448    7.7033    1.8993 H       1  LIG11       0.0654
     46 H          -6.7173    3.5073   -8.5719 H       1  LIG11       0.1166
     47 H          -8.0905    4.1309   -7.6271 H       1  LIG11       0.1166
     48 H          -9.7041    3.3684    0.2769 H       1  LIG11       0.0727
     49 H         -10.7050    1.6381    2.6155 H       1  LIG11       0.0265
     50 H          -9.2960    2.6863    2.6741 H       1  LIG11       0.0265
     51 H         -10.9110    3.3982    2.4658 H       1  LIG11       0.0265
     52 H         -11.9344    1.2845    0.3621 H       1  LIG11       0.0265
     53 H         -12.1547    3.0459    0.2218 H       1  LIG11       0.0265
     54 H         -11.3491    2.1254   -1.0664 H       1  LIG11       0.0265
     55 H          -5.7986    7.4747    6.2525 H       1  LIG11       0.0660
     56 H          -5.8866    5.7751    5.7791 H       1  LIG11       0.0660
     57 H          -4.3646    6.7221    5.5431 H       1  LIG11       0.0660
@<TRIPOS>BOND
     1     1     4    1
     2     1     2    1
     3     1     3    1
     4     2     5    2
     5     2     6    1
     6     3     8   ar
     7     3     7   ar
     8     4     9    1
     9     5    10    1
    10     5    11    1
    11     6    13   ar
    12     6    12   ar
    13     7    14   ar
    14     8    15   ar
    15     9    16   ar
    16     9    10   ar
    17    10    17   ar
    18    11    18   ar
    19    11    19   ar
    20    14    21    1
    21    14    20   ar
    22    15    20   ar
    23    16    22   ar
    24    17    23   ar
    25    18    24   ar
    26    19    25   ar
    27    20    26    1
    28    21    27    1
    29    22    23   ar
    30    23    28    1
    31    24    29   ar
    32    25    29   ar
    33    26    27    1
    34    28    30    1
    35    29    31    1
    36    30    33    1
    37    30    32    1
    38    31    34    1
    39     1    35    1
    40     7    36    1
    41     8    37    1
    42    15    38    1
    43    16    39    1
    44    17    40    1
    45    18    41    1
    46    19    42    1
    47    22    43    1
    48    24    44    1
    49    25    45    1
    50    27    46    1
    51    27    47    1
    52    30    48    1
    53    32    49    1
    54    32    50    1
    55    32    51    1
    56    33    52    1
    57    33    53    1
    58    33    54    1
    59    34    55    1
    60    34    56    1
    61    34    57    1
@<TRIPOS>MOLECULE
../1EDN/PCA3_17-21.pdb
 47 48 0 0 0
SMALL
GASTEIGER

@<TRIPOS>ATOM
      1  N         -4.2370    0.0490   -1.5930 N.3    17  LEU17      -0.1231
      2  CA        -5.5250   -0.5610   -1.9200 C.3    17  LEU17       0.1693
      3  CB        -5.7360   -1.8160   -1.1010 C.3    17  LEU17       0.0284
      4  CG        -6.9950   -2.5690   -1.5730 C.3    17  LEU17       0.0019
      5  CD1       -6.7530   -3.1800   -3.0080 C.3    17  LEU17       0.0001
      6  CD2       -7.2580   -3.7400   -0.6960 C.3    17  LEU17       0.0001
      7  C         -6.6810    0.4320   -1.9250 C.2    17  LEU17       0.2592
      8  O         -7.3270    0.6200   -2.9560 O.2    17  LEU17      -0.2718
      9  N         -6.9500    1.1080   -0.7900 N.am   18  ASP18      -0.1960
     10  CA        -8.0880    2.0070   -0.5710 C.3    18  ASP18       0.1840
     11  CB        -9.1090    1.3410    0.3760 C.3    18  ASP18       0.1450
     12  CG       -10.1470    2.2990    0.9520 C.2    18  ASP18       0.3671
     13  OD1      -11.0720    2.5310    0.1500 O.co2  18  ASP18      -0.2456
     14  OD2      -10.1960    2.6850    2.1610 O.co2  18  ASP18      -0.2456
     15  C         -7.6280    3.3500    0.0060 C.2    18  ASP18       0.2622
     16  O         -7.9950    4.4650   -0.3580 O.2    18  ASP18      -0.2715
     17  N         -6.8140    3.2050    1.0390 N.am   19  ILE19      -0.1963
     18  CA        -6.1800    4.3790    1.8160 C.3    19  ILE19       0.1727
     19  CB        -5.3140    3.8890    3.0670 C.3    19  ILE19       0.0290
     20  CG2       -4.6600    5.0630    3.8540 C.3    19  ILE19       0.0023
     21  CG1       -6.1440    2.9790    3.9890 C.3    19  ILE19       0.0022
     22  CD1       -5.5170    2.2940    5.2130 C.3    19  ILE19       0.0001
     23  C         -5.2670    5.2520    0.8640 C.2    19  ILE19       0.2616
     24  O         -5.3920    6.4650    0.9090 O.2    19  ILE19      -0.2715
     25  N         -4.4890    4.6060    0.0020 N.am   20  ILE20      -0.1963
     26  CA        -3.9690    5.2910   -1.1850 C.3    20  ILE20       0.1727
     27  CB        -2.4460    5.7340   -1.0120 C.3    20  ILE20       0.0290
     28  CG2       -2.3030    7.0110   -0.1100 C.3    20  ILE20       0.0023
     29  CG1       -1.4300    4.6170   -0.6100 C.3    20  ILE20       0.0022
     30  CD1        0.0800    4.9990   -0.7110 C.3    20  ILE20       0.0001
     31  C         -4.1660    4.3690   -2.4130 C.2    20  ILE20       0.2617
     32  O         -3.9200    3.1710   -2.5010 O.2    20  ILE20      -0.2715
     33  N         -4.6410    5.0460   -3.5090 N.am   21  TRP21      -0.1938
     34  CA        -4.8980    4.4430   -4.8120 C.3    21  TRP21       0.2021
     35  CB        -6.2680    3.7450   -4.8170 C.3    21  TRP21       0.0612
     36  CG        -6.5090    2.9660   -6.0890 C.ar   21  TRP21       0.0007
     37  CD1       -7.0550    3.4090   -7.2190 C.ar   21  TRP21       0.0946
     38  NE1       -7.1560    2.4190   -8.1260 N.ar   21  TRP21      -0.2442
     39  CE2       -6.6880    1.2600   -7.6470 C.ar   21  TRP21       0.0810
     40  CZ2       -6.5320   -0.1050   -8.0600 C.ar   21  TRP21       0.0191
     41  CH2       -5.9630   -1.0770   -7.2340 C.ar   21  TRP21       0.0015
     42  CZ3       -5.4330   -0.7150   -5.9030 C.ar   21  TRP21       0.0001
     43  CE3       -5.5290    0.6400   -5.5430 C.ar   21  TRP21       0.0012
     44  CD2       -6.2440    1.5830   -6.3190 C.ar   21  TRP21       0.0152
     45  C         -4.7460    5.5030   -5.9410 C.2    21  TRP21       0.3845
     46  O         -5.6740    6.3580   -6.0770 O.co2  21  TRP21      -0.2437
     47  OXT       -3.7150    5.4030   -6.6310 O.co2  21  TRP21      -0.2437
@<TRIPOS>BOND
     1    38    39   ar
     2    38    37   ar
     3    40    39   ar
     4    40    41   ar
     5    39    44   ar
     6    41    42   ar
     7    37    36   ar
     8    47    45   ar
     9    44    36   ar
    10    44    43   ar
    11    36    35    1
    12    46    45   ar
    13    45    34    1
    14    42    43   ar
    15    35    34    1
    16    34    33    1
    17    33    31   am
    18     5     4    1
    19     8     7    2
    20    32    31    2
    21    31    26    1
    22     7     2    1
    23     7     9   am
    24     2     1    1
    25     2     3    1
    26     4     3    1
    27     4     6    1
    28    26    27    1
    29    26    25    1
    30    27    29    1
    31    27    28    1
    32     9    10    1
    33    30    29    1
    34    10    15    1
    35    10    11    1
    36    16    15    2
    37    25    23   am
    38    15    17   am
    39    13    12   ar
    40    11    12    1
    41    23    24    2
    42    23    18    1
    43    12    14   ar
    44    17    18    1
    45    18    19    1
    46    19    20    1
    47    19    21    1
    48    21    22    1
