@<TRIPOS>MOLECULE
16004692
 52 54 0 0 0
SMALL
GASTEIGER

@<TRIPOS>ATOM
      1 BR          5.2609  -22.0971   -0.2439 Br      1  LIG11      -0.0503
      2 BR          3.8029  -17.9896    1.0418 Br      1  LIG11      -0.0472
      3 S           1.3803  -17.2721   -4.5023 S.O2    1  LIG11       0.1104
      4 O           7.2454  -15.3248   -3.0528 O.3     1  LIG11      -0.4724
      5 O           1.1608  -15.9090   -3.0738 O.2     1  LIG11      -0.1381
      6 O           0.7643  -17.9331   -5.1848 O.2     1  LIG11      -0.1381
      7 O           5.4808  -13.2969   -2.1920 O.3     1  LIG11      -0.4590
      8 N           1.5088  -18.6070   -3.2815 N.3     1  LIG11      -0.1771
      9 N           2.7574  -17.4822   -5.5195 N.pl3   1  LIG11      -0.1889
     10 N           4.4632  -15.4276   -6.0279 N.ar    1  LIG11      -0.2186
     11 N           6.1178  -14.7211   -5.1799 N.ar    1  LIG11      -0.2008
     12 N           5.7928  -15.3482   -1.4091 N.ar    1  LIG11      -0.2022
     13 N           3.4987  -14.6443   -1.6279 N.ar    1  LIG11      -0.2022
     14 C           2.0872  -18.9409   -2.7085 C.3     1  LIG11       0.0185
     15 C           4.7964  -16.7632   -4.3787 C.ar    1  LIG11       0.0848
     16 C           3.5671  -16.2411   -4.5187 C.ar    1  LIG11       0.1532
     17 C           2.9717  -17.7064   -1.4703 C.3     1  LIG11      -0.0416
     18 C           5.0823  -17.7105   -2.8708 C.ar    1  LIG11      -0.0094
     19 C           5.9180  -15.5571   -3.6522 C.ar    1  LIG11       0.2276
     20 C           1.4963  -17.4154   -0.3627 C.3     1  LIG11      -0.0641
     21 C           4.3970  -18.7790   -3.3990 C.ar    1  LIG11      -0.0527
     22 C           6.4531  -18.0282   -2.3028 C.ar    1  LIG11      -0.0527
     23 C           7.4399  -14.4627   -2.1720 C.3     1  LIG11       0.1252
     24 C           4.5412  -20.0177   -2.7143 C.ar    1  LIG11      -0.0472
     25 C           6.4557  -19.1736   -1.5068 C.ar    1  LIG11      -0.0472
     26 C           5.1127  -14.2970   -5.1786 C.ar    1  LIG11       0.1219
     27 C           6.6259  -13.2773   -2.7726 C.3     1  LIG11       0.1267
     28 C           4.9868  -20.6090   -1.2002 C.ar    1  LIG11       0.0179
     29 C           5.1637  -13.9543   -1.5070 C.ar    1  LIG11       0.3180
     30 C           5.1914  -16.1264    0.0775 C.ar    1  LIG11       0.0483
     31 C           3.2942  -15.1777   -0.8800 C.ar    1  LIG11       0.0483
     32 C           3.7737  -16.4156    0.2305 C.ar    1  LIG11       0.0543
     33 H           0.9836  -18.9701   -3.9818 H       1  LIG11       0.1493
     34 H           3.1960  -17.8801   -5.8272 H       1  LIG11       0.1763
     35 H           2.6981  -19.2185   -3.1463 H       1  LIG11       0.0442
     36 H           1.9368  -19.6155   -2.0777 H       1  LIG11       0.0442
     37 H           3.0660  -17.1667   -2.0046 H       1  LIG11       0.0275
     38 H           3.5309  -18.3055   -1.1861 H       1  LIG11       0.0275
     39 H           0.4297  -17.4515   -1.0561 H       1  LIG11       0.0230
     40 H           1.6841  -17.0561    0.4882 H       1  LIG11       0.0230
     41 H           1.0836  -18.7627    0.0384 H       1  LIG11       0.0230
     42 H           3.8287  -18.7602   -4.2520 H       1  LIG11       0.0624
     43 H           6.8228  -17.7764   -1.7459 H       1  LIG11       0.0624
     44 H           8.8322  -14.3539   -2.2983 H       1  LIG11       0.0731
     45 H           7.6209  -14.3435   -0.9889 H       1  LIG11       0.0731
     46 H           3.7435  -20.7987   -2.7879 H       1  LIG11       0.0629
     47 H           6.8498  -19.2284   -0.5641 H       1  LIG11       0.0629
     48 H           4.9962  -13.5055   -5.9322 H       1  LIG11       0.1049
     49 H           6.8200  -12.2987   -2.1862 H       1  LIG11       0.0732
     50 H           7.1601  -13.1109   -3.3497 H       1  LIG11       0.0732
     51 H           5.6527  -16.9324    0.0364 H       1  LIG11       0.0843
     52 H           2.1711  -15.5842   -1.1257 H       1  LIG11       0.0843
@<TRIPOS>BOND
     1     1    28    1
     2     2    32    1
     3     3     5    2
     4     3     6    2
     5     3     8    1
     6     3     9    1
     7     4    19    1
     8     4    23    1
     9     7    27    1
    10     7    29    1
    11     8    14    1
    12     9    16    1
    13    10    16   ar
    14    10    26   ar
    15    11    19   ar
    16    11    26   ar
    17    12    29   ar
    18    12    30   ar
    19    13    29   ar
    20    13    31   ar
    21    14    17    1
    22    15    16   ar
    23    15    18    1
    24    15    19   ar
    25    17    20    1
    26    18    21   ar
    27    18    22   ar
    28    21    24   ar
    29    22    25   ar
    30    23    27    1
    31    24    28   ar
    32    25    28   ar
    33    30    32   ar
    34    31    32   ar
    35     8    33    1
    36     9    34    1
    37    14    35    1
    38    14    36    1
    39    17    37    1
    40    17    38    1
    41    20    39    1
    42    20    40    1
    43    20    41    1
    44    21    42    1
    45    22    43    1
    46    23    44    1
    47    23    45    1
    48    24    46    1
    49    25    47    1
    50    26    48    1
    51    27    49    1
    52    27    50    1
    53    30    51    1
    54    31    52    1
@<TRIPOS>MOLECULE
../1EDN/XRAY_17-21.pdb
 47 48 0 0 0
SMALL
GASTEIGER

@<TRIPOS>ATOM
      1  N          6.4500  -19.7300   -2.8460 N.3    17  LEU17      -0.1231
      2  CA         5.2640  -20.1680   -2.1160 C.3    17  LEU17       0.1693
      3  C          4.7010  -18.8060   -1.6720 C.2    17  LEU17       0.2592
      4  O          4.3760  -17.9800   -2.5270 O.2    17  LEU17      -0.2718
      5  CB         5.6570  -21.0170   -0.8850 C.3    17  LEU17       0.0284
      6  CG         5.4050  -22.5400   -0.8470 C.3    17  LEU17       0.0019
      7  CD1        6.1110  -23.2140    0.3150 C.3    17  LEU17       0.0001
      8  CD2        3.9240  -22.7940   -0.7690 C.3    17  LEU17       0.0001
      9  N          4.7270  -18.4910   -0.3800 N.am   18  ASP18      -0.1962
     10  CA         4.1720  -17.2010    0.0630 C.3    18  ASP18       0.1783
     11  C          4.7750  -15.8130   -0.3500 C.2    18  ASP18       0.2620
     12  O          4.1570  -14.7710   -0.0750 O.2    18  ASP18      -0.2715
     13  CB         3.8720  -17.2370    1.5730 C.3    18  ASP18       0.0728
     14  CG         2.4440  -17.7210    1.8880 C.2    18  ASP18       0.0526
     15  OD1        1.8320  -18.4410    1.0660 O.co2  18  ASP18      -0.5491
     16  OD2        1.9260  -17.3730    2.9700 O.co2  18  ASP18      -0.5491
     17  N          5.9570  -15.7420   -0.9630 N.am   19  ILE19      -0.1963
     18  CA         6.4450  -14.4030   -1.3510 C.3    19  ILE19       0.1727
     19  C          5.5760  -13.9960   -2.5290 C.2    19  ILE19       0.2616
     20  O          4.8370  -13.0080   -2.4770 O.2    19  ILE19      -0.2715
     21  CB         7.9140  -14.3690   -1.8400 C.3    19  ILE19       0.0290
     22  CG1        8.8760  -14.8240   -0.7490 C.3    19  ILE19       0.0022
     23  CG2        8.2810  -12.9320   -2.2380 C.3    19  ILE19       0.0023
     24  CD1        9.3280  -13.7050    0.1860 C.3    19  ILE19       0.0001
     25  N          5.7170  -14.7750   -3.5990 N.am   20  ILE20      -0.1963
     26  CA         4.9770  -14.6140   -4.8450 C.3    20  ILE20       0.1727
     27  C          4.7560  -16.0550   -5.2510 C.2    20  ILE20       0.2615
     28  O          5.5820  -16.9240   -4.9410 O.2    20  ILE20      -0.2715
     29  CB         5.8140  -13.8870   -5.9550 C.3    20  ILE20       0.0290
     30  CG1        5.9530  -12.3980   -5.6400 C.3    20  ILE20       0.0022
     31  CG2        5.1640  -14.0490   -7.3150 C.3    20  ILE20       0.0023
     32  CD1        6.8340  -11.6390   -6.6010 C.3    20  ILE20       0.0001
     33  N          3.6520  -16.3070   -5.9350 N.am   21  TRP21      -0.1988
     34  CA         3.3300  -17.6370   -6.4010 C.3    21  TRP21       0.1456
     35  C          2.5650  -17.6270   -7.7180 C.2    21  TRP21       0.1166
     36  O          1.8980  -18.6320   -8.0750 O.co2  21  TRP21      -0.3065
     37  CB         2.6690  -18.5180   -5.3120 C.3    21  TRP21       0.0562
     38  CG         1.5690  -17.9980   -4.3600 C.ar   21  TRP21       0.0005
     39  CD1        0.7990  -18.7930   -3.5490 C.ar   21  TRP21       0.0946
     40  CD2        1.2480  -16.6350   -3.9890 C.ar   21  TRP21       0.0152
     41  CE2        0.3020  -16.7070   -2.9250 C.ar   21  TRP21       0.0810
     42  CE3        1.6680  -15.3700   -4.4360 C.ar   21  TRP21       0.0012
     43  NE1        0.0520  -18.0350   -2.6840 N.ar   21  TRP21      -0.2442
     44  CZ2       -0.2230  -15.5590   -2.2950 C.ar   21  TRP21       0.0191
     45  CZ3        1.1420  -14.2140   -3.8060 C.ar   21  TRP21       0.0001
     46  CH2        0.2070  -14.3240   -2.7450 C.ar   21  TRP21       0.0015
     47  OXT        2.7400  -16.6140   -8.4280 O.co2  21  TRP21      -0.8460
@<TRIPOS>BOND
     1    47    35   ar
     2    36    35   ar
     3    35    34    1
     4    31    29    1
     5    32    30    1
     6    34    33    1
     7    34    37    1
     8    29    30    1
     9    29    26    1
    10    33    27   am
    11    37    38    1
    12    27    28    2
    13    27    26    1
    14    26    25    1
    15    42    40   ar
    16    42    45   ar
    17    38    40   ar
    18    38    39   ar
    19    40    41   ar
    20    45    46   ar
    21    25    19   am
    22    39    43   ar
    23    41    43   ar
    24    41    44   ar
    25     1     2    1
    26    46    44   ar
    27    19    20    2
    28    19    18    1
    29     4     3    2
    30    23    21    1
    31     2     3    1
    32     2     5    1
    33    21    18    1
    34    21    22    1
    35     3     9   am
    36    18    17    1
    37    17    11   am
    38     5     6    1
    39     6     8    1
    40     6     7    1
    41    22    24    1
    42     9    10    1
    43    11    12    2
    44    11    10    1
    45    10    13    1
    46    15    14   ar
    47    13    14    1
    48    14    16   ar
