@<TRIPOS>MOLECULE
02228316B
 82 86 0 0 0
SMALL
GASTEIGER

@<TRIPOS>ATOM
      1 C           3.6061  -16.9976    3.9075 C.3     1  LIG11       0.2491
      2 C           4.7336  -17.1878    2.9128 C.2     1  LIG11       0.3556
      3 N           2.3814  -17.2844    3.1179 N.2     1  LIG11      -0.0687
      4 C           3.5315  -15.5973    4.5181 C.3     1  LIG11       0.0059
      5 C           3.7042  -17.9874    5.0727 C.3     1  LIG11       0.0059
      6 N           4.1467  -17.6744    1.7806 N.am    1  LIG11      -0.1529
      7 O           5.9215  -16.9794    3.1032 O.2     1  LIG11      -0.2422
      8 C           2.8118  -17.6800    1.9592 C.2     1  LIG11       0.2916
      9 C           3.6969  -15.8056    6.0222 C.3     1  LIG11      -0.0481
     10 C           3.1713  -17.2100    6.2663 C.3     1  LIG11      -0.0481
     11 C           4.9163  -18.1094    0.6291 C.3     1  LIG11       0.1137
     12 C           1.8805  -18.1185    0.8519 C.3     1  LIG11       0.0509
     13 C           4.9824  -17.0840   -0.4701 C.ar    1  LIG11      -0.0073
     14 C           0.3920  -18.0655    1.1952 C.3     1  LIG11      -0.0424
     15 C           5.7114  -15.9089   -0.3421 C.ar    1  LIG11      -0.0491
     16 C           4.3072  -17.2597   -1.6560 C.ar    1  LIG11      -0.0544
     17 C          -0.0479  -19.1874    2.1379 C.3     1  LIG11      -0.0554
     18 C           5.8351  -14.9418   -1.3976 C.ar    1  LIG11      -0.0138
     19 C           4.4043  -16.3000   -2.6749 C.ar    1  LIG11      -0.0533
     20 C          -1.5465  -19.1318    2.3938 C.3     1  LIG11      -0.0653
     21 C           5.2180  -15.1594   -2.6759 C.ar    1  LIG11      -0.0106
     22 C           6.6228  -13.7238   -0.9408 C.3     1  LIG11       0.0732
     23 C           5.3504  -14.3111   -3.9658 C.ar    1  LIG11       0.0091
     24 O           7.8529  -13.5213   -1.6220 O.3     1  LIG11      -0.3754
     25 C           5.1234  -14.6726   -5.3442 C.ar    1  LIG11       0.1162
     26 C           5.7746  -12.9623   -3.8300 C.ar    1  LIG11      -0.0521
     27 C           8.8573  -14.4968   -1.3456 C.3     1  LIG11       0.0453
     28 S           4.4542  -16.2101   -6.0274 S.O2    1  LIG11       0.0741
     29 C           5.4283  -13.7626   -6.4068 C.ar    1  LIG11      -0.0345
     30 C           6.0769  -12.0830   -4.8830 C.ar    1  LIG11      -0.0611
     31 C           9.3372  -14.4672    0.0977 C.3     1  LIG11      -0.0416
     32 N           2.7827  -15.9040   -6.0554 N.pl3   1  LIG11      -0.1965
     33 O           4.7805  -17.3585   -5.2187 O.2     1  LIG11      -0.1499
     34 O           4.7971  -16.2660   -7.4410 O.2     1  LIG11      -0.1499
     35 C           5.9209  -12.4902   -6.1828 C.ar    1  LIG11      -0.0599
     36 C           1.9441  -16.4119   -5.0714 C.ar    1  LIG11       0.1837
     37 C           1.5131  -17.7529   -4.9032 C.ar    1  LIG11       0.0342
     38 N           1.4262  -15.6090   -4.1390 N.ar    1  LIG11      -0.0614
     39 C           0.7751  -17.7090   -3.7369 C.ar    1  LIG11       0.1390
     40 C           1.8253  -18.9427   -5.7232 C.3     1  LIG11      -0.0330
     41 O           0.7177  -16.4295   -3.2845 O.2     1  LIG11      -0.3578
     42 C           0.0962  -18.7207   -2.9048 C.3     1  LIG11      -0.0034
     43 H           4.3003  -14.9172    4.1368 H       1  LIG11       0.0316
     44 H           2.5572  -15.1330    4.3215 H       1  LIG11       0.0316
     45 H           3.1337  -18.9082    4.9094 H       1  LIG11       0.0316
     46 H           4.7468  -18.2738    5.2594 H       1  LIG11       0.0316
     47 H           4.7583  -15.7503    6.2922 H       1  LIG11       0.0267
     48 H           3.1588  -15.0536    6.6064 H       1  LIG11       0.0267
     49 H           2.0749  -17.2140    6.2637 H       1  LIG11       0.0267
     50 H           3.5146  -17.6252    7.2180 H       1  LIG11       0.0267
     51 H           5.9382  -18.3552    0.9433 H       1  LIG11       0.0783
     52 H           4.4732  -19.0382    0.2522 H       1  LIG11       0.0783
     53 H           2.0486  -17.4456    0.0049 H       1  LIG11       0.0387
     54 H           2.1592  -19.1277    0.5297 H       1  LIG11       0.0387
     55 H           0.1376  -17.0908    1.6289 H       1  LIG11       0.0271
     56 H          -0.1769  -18.1515    0.2611 H       1  LIG11       0.0271
     57 H           6.2138  -15.7290    0.6106 H       1  LIG11       0.0625
     58 H           3.6865  -18.1357   -1.8293 H       1  LIG11       0.0622
     59 H           0.2069  -20.1613    1.7046 H       1  LIG11       0.0263
     60 H           0.4760  -19.1144    3.0965 H       1  LIG11       0.0263
     61 H           3.7629  -16.5005   -3.5030 H       1  LIG11       0.0624
     62 H          -2.1075  -19.2716    1.4642 H       1  LIG11       0.0230
     63 H          -1.8424  -19.9216    3.0912 H       1  LIG11       0.0230
     64 H          -1.8354  -18.1690    2.8279 H       1  LIG11       0.0230
     65 H           5.9926  -12.8329   -1.0219 H       1  LIG11       0.0610
     66 H           6.8149  -13.7465    0.1385 H       1  LIG11       0.0610
     67 H           5.8928  -12.5017   -2.8645 H       1  LIG11       0.0624
     68 H           8.5099  -15.4965   -1.6259 H       1  LIG11       0.0557
     69 H           9.7036  -14.2593   -1.9980 H       1  LIG11       0.0557
     70 H           5.2769  -14.0419   -7.4494 H       1  LIG11       0.0637
     71 H           6.4378  -11.0814   -4.6617 H       1  LIG11       0.0618
     72 H           8.5754  -14.8534    0.7819 H       1  LIG11       0.0252
     73 H          10.2294  -15.0880    0.2187 H       1  LIG11       0.0252
     74 H           9.5662  -13.4443    0.4128 H       1  LIG11       0.0252
     75 H           2.4657  -16.0536   -7.0113 H       1  LIG11       0.1753
     76 H           6.1553  -11.8284   -7.0108 H       1  LIG11       0.0618
     77 H           2.3650  -18.6745   -6.6360 H       1  LIG11       0.0280
     78 H           2.4416  -19.6474   -5.1562 H       1  LIG11       0.0280
     79 H           0.9026  -19.4523   -6.0194 H       1  LIG11       0.0280
     80 H          -0.2513  -19.5613   -3.5122 H       1  LIG11       0.0309
     81 H           0.7845  -19.1082   -2.1465 H       1  LIG11       0.0309
     82 H          -0.7704  -18.2927   -2.3914 H       1  LIG11       0.0309
@<TRIPOS>BOND
     1     1     5    1
     2     1     4    1
     3     1     2    1
     4     1     3    1
     5     2     6   am
     6     2     7    2
     7     3     8    2
     8     4     9    1
     9     5    10    1
    10     6     8    1
    11     6    11    1
    12     8    12    1
    13     9    10    1
    14    11    13    1
    15    12    14    1
    16    13    15   ar
    17    13    16   ar
    18    14    17    1
    19    15    18   ar
    20    16    19   ar
    21    17    20    1
    22    18    21   ar
    23    18    22    1
    24    19    21   ar
    25    21    23    1
    26    22    24    1
    27    23    26   ar
    28    23    25   ar
    29    24    27    1
    30    25    29   ar
    31    25    28    1
    32    26    30   ar
    33    27    31    1
    34    28    34    2
    35    28    33    2
    36    28    32    1
    37    29    35   ar
    38    30    35   ar
    39    32    36    1
    40    36    37   ar
    41    36    38   ar
    42    37    39   ar
    43    37    40    1
    44    38    41   ar
    45    39    41   ar
    46    39    42    1
    47     4    43    1
    48     4    44    1
    49     5    45    1
    50     5    46    1
    51     9    47    1
    52     9    48    1
    53    10    49    1
    54    10    50    1
    55    11    51    1
    56    11    52    1
    57    12    53    1
    58    12    54    1
    59    14    55    1
    60    14    56    1
    61    15    57    1
    62    16    58    1
    63    17    59    1
    64    17    60    1
    65    19    61    1
    66    20    62    1
    67    20    63    1
    68    20    64    1
    69    22    65    1
    70    22    66    1
    71    26    67    1
    72    27    68    1
    73    27    69    1
    74    29    70    1
    75    30    71    1
    76    31    72    1
    77    31    73    1
    78    31    74    1
    79    32    75    1
    80    35    76    1
    81    40    77    1
    82    40    78    1
    83    40    79    1
    84    42    80    1
    85    42    81    1
    86    42    82    1
@<TRIPOS>MOLECULE
../1EDN/XRAY_17-21.pdb
 47 48 0 0 0
SMALL
GASTEIGER

@<TRIPOS>ATOM
      1  N          6.4500  -19.7300   -2.8460 N.3    17  LEU17      -0.1231
      2  CA         5.2640  -20.1680   -2.1160 C.3    17  LEU17       0.1693
      3  C          4.7010  -18.8060   -1.6720 C.2    17  LEU17       0.2592
      4  O          4.3760  -17.9800   -2.5270 O.2    17  LEU17      -0.2718
      5  CB         5.6570  -21.0170   -0.8850 C.3    17  LEU17       0.0284
      6  CG         5.4050  -22.5400   -0.8470 C.3    17  LEU17       0.0019
      7  CD1        6.1110  -23.2140    0.3150 C.3    17  LEU17       0.0001
      8  CD2        3.9240  -22.7940   -0.7690 C.3    17  LEU17       0.0001
      9  N          4.7270  -18.4910   -0.3800 N.am   18  ASP18      -0.1962
     10  CA         4.1720  -17.2010    0.0630 C.3    18  ASP18       0.1783
     11  C          4.7750  -15.8130   -0.3500 C.2    18  ASP18       0.2620
     12  O          4.1570  -14.7710   -0.0750 O.2    18  ASP18      -0.2715
     13  CB         3.8720  -17.2370    1.5730 C.3    18  ASP18       0.0728
     14  CG         2.4440  -17.7210    1.8880 C.2    18  ASP18       0.0526
     15  OD1        1.8320  -18.4410    1.0660 O.co2  18  ASP18      -0.5491
     16  OD2        1.9260  -17.3730    2.9700 O.co2  18  ASP18      -0.5491
     17  N          5.9570  -15.7420   -0.9630 N.am   19  ILE19      -0.1963
     18  CA         6.4450  -14.4030   -1.3510 C.3    19  ILE19       0.1727
     19  C          5.5760  -13.9960   -2.5290 C.2    19  ILE19       0.2616
     20  O          4.8370  -13.0080   -2.4770 O.2    19  ILE19      -0.2715
     21  CB         7.9140  -14.3690   -1.8400 C.3    19  ILE19       0.0290
     22  CG1        8.8760  -14.8240   -0.7490 C.3    19  ILE19       0.0022
     23  CG2        8.2810  -12.9320   -2.2380 C.3    19  ILE19       0.0023
     24  CD1        9.3280  -13.7050    0.1860 C.3    19  ILE19       0.0001
     25  N          5.7170  -14.7750   -3.5990 N.am   20  ILE20      -0.1963
     26  CA         4.9770  -14.6140   -4.8450 C.3    20  ILE20       0.1727
     27  C          4.7560  -16.0550   -5.2510 C.2    20  ILE20       0.2615
     28  O          5.5820  -16.9240   -4.9410 O.2    20  ILE20      -0.2715
     29  CB         5.8140  -13.8870   -5.9550 C.3    20  ILE20       0.0290
     30  CG1        5.9530  -12.3980   -5.6400 C.3    20  ILE20       0.0022
     31  CG2        5.1640  -14.0490   -7.3150 C.3    20  ILE20       0.0023
     32  CD1        6.8340  -11.6390   -6.6010 C.3    20  ILE20       0.0001
     33  N          3.6520  -16.3070   -5.9350 N.am   21  TRP21      -0.1988
     34  CA         3.3300  -17.6370   -6.4010 C.3    21  TRP21       0.1456
     35  C          2.5650  -17.6270   -7.7180 C.2    21  TRP21       0.1166
     36  O          1.8980  -18.6320   -8.0750 O.co2  21  TRP21      -0.3065
     37  CB         2.6690  -18.5180   -5.3120 C.3    21  TRP21       0.0562
     38  CG         1.5690  -17.9980   -4.3600 C.ar   21  TRP21       0.0005
     39  CD1        0.7990  -18.7930   -3.5490 C.ar   21  TRP21       0.0946
     40  CD2        1.2480  -16.6350   -3.9890 C.ar   21  TRP21       0.0152
     41  CE2        0.3020  -16.7070   -2.9250 C.ar   21  TRP21       0.0810
     42  CE3        1.6680  -15.3700   -4.4360 C.ar   21  TRP21       0.0012
     43  NE1        0.0520  -18.0350   -2.6840 N.ar   21  TRP21      -0.2442
     44  CZ2       -0.2230  -15.5590   -2.2950 C.ar   21  TRP21       0.0191
     45  CZ3        1.1420  -14.2140   -3.8060 C.ar   21  TRP21       0.0001
     46  CH2        0.2070  -14.3240   -2.7450 C.ar   21  TRP21       0.0015
     47  OXT        2.7400  -16.6140   -8.4280 O.co2  21  TRP21      -0.8460
@<TRIPOS>BOND
     1    47    35   ar
     2    36    35   ar
     3    35    34    1
     4    31    29    1
     5    32    30    1
     6    34    33    1
     7    34    37    1
     8    29    30    1
     9    29    26    1
    10    33    27   am
    11    37    38    1
    12    27    28    2
    13    27    26    1
    14    26    25    1
    15    42    40   ar
    16    42    45   ar
    17    38    40   ar
    18    38    39   ar
    19    40    41   ar
    20    45    46   ar
    21    25    19   am
    22    39    43   ar
    23    41    43   ar
    24    41    44   ar
    25     1     2    1
    26    46    44   ar
    27    19    20    2
    28    19    18    1
    29     4     3    2
    30    23    21    1
    31     2     3    1
    32     2     5    1
    33    21    18    1
    34    21    22    1
    35     3     9   am
    36    18    17    1
    37    17    11   am
    38     5     6    1
    39     6     8    1
    40     6     7    1
    41    22    24    1
    42     9    10    1
    43    11    12    2
    44    11    10    1
    45    10    13    1
    46    15    14   ar
    47    13    14    1
    48    14    16   ar
