@<TRIPOS>MOLECULE
159594
 75 78 0 0 0
SMALL
GASTEIGER

@<TRIPOS>ATOM
      1 O           3.6596  -18.6860   -7.2537 O.co2   1  LIG11      -0.5493
      2 O           1.7743  -17.4587   -7.6470 O.co2   1  LIG11      -0.5493
      3 O           5.6818  -12.0879   -7.1526 O.3     1  LIG11      -0.4526
      4 O           5.5893  -17.7838   -1.7233 O.2     1  LIG11      -0.2697
      5 O           6.6503  -11.4452   -5.0398 O.3     1  LIG11      -0.4526
      6 O          -2.4583  -16.2074   -2.8049 O.3     1  LIG11      -0.4951
      7 N           3.7844  -17.7347   -3.7761 N.4     1  LIG11       0.2481
      8 N           4.6211  -19.4412   -0.4684 N.am    1  LIG11      -0.2971
      9 C           3.2159  -16.8201   -5.9144 C.3     1  LIG11       0.0574
     10 C           4.7382  -16.7244   -5.7146 C.3     1  LIG11       0.0378
     11 C           2.6643  -17.7262   -4.8093 C.3     1  LIG11       0.0143
     12 C           5.0205  -17.7893   -4.6547 C.3     1  LIG11      -0.0230
     13 C           5.1948  -15.2998   -5.3966 C.ar    1  LIG11      -0.0347
     14 C           1.3195  -17.3160   -4.2401 C.ar    1  LIG11       0.0011
     15 C           3.6963  -18.8379   -2.7419 C.3     1  LIG11       0.0468
     16 C           2.8623  -17.7225   -7.0820 C.2     1  LIG11       0.0513
     17 C           5.1302  -14.3559   -6.4443 C.ar    1  LIG11      -0.0125
     18 C           4.7200  -18.6520   -1.6068 C.2     1  LIG11       0.2608
     19 C           5.7552  -14.8977   -4.1600 C.ar    1  LIG11      -0.0544
     20 C           0.2374  -18.2051   -4.3758 C.ar    1  LIG11      -0.0498
     21 C           1.0890  -16.0812   -3.6231 C.ar    1  LIG11      -0.0498
     22 C           5.6354  -13.0891   -6.2343 C.ar    1  LIG11       0.1665
     23 C           6.2526  -13.5996   -3.9744 C.ar    1  LIG11      -0.0159
     24 C           6.1862  -12.7227   -5.0327 C.ar    1  LIG11       0.1662
     25 C          -1.0367  -17.8798   -3.9030 C.ar    1  LIG11      -0.0195
     26 C          -0.1907  -15.7587   -3.1508 C.ar    1  LIG11      -0.0195
     27 C           5.4954  -19.1172    0.6719 C.3     1  LIG11       0.0148
     28 C           3.6397  -20.5239   -0.2941 C.3     1  LIG11       0.0148
     29 C          -1.2589  -16.6499   -3.2924 C.ar    1  LIG11       0.1201
     30 C           5.0171  -17.9445    1.5395 C.3     1  LIG11      -0.0374
     31 C           4.2093  -21.8982    0.0955 C.3     1  LIG11      -0.0374
     32 C           6.3543  -11.0589   -6.3990 C.3     1  LIG11       0.2332
     33 C           5.3542  -16.5707    0.9530 C.3     1  LIG11      -0.0545
     34 C           5.1678  -22.5399   -0.9129 C.3     1  LIG11      -0.0545
     35 C           5.2564  -15.4648    1.9908 C.3     1  LIG11      -0.0652
     36 C           6.5648  -21.9386   -0.9317 C.3     1  LIG11      -0.0652
     37 C          -3.6032  -16.9931   -3.1228 C.3     1  LIG11       0.0788
     38 H           3.7904  -16.8349   -3.2840 H       1  LIG11       0.2045
     39 H           2.7154  -15.8503   -6.0004 H       1  LIG11       0.0427
     40 H           5.3028  -17.0003   -6.6157 H       1  LIG11       0.0409
     41 H           2.5836  -18.7858   -5.0939 H       1  LIG11       0.0911
     42 H           5.0692  -18.7981   -5.0799 H       1  LIG11       0.0821
     43 H           5.9185  -17.6176   -4.0610 H       1  LIG11       0.0821
     44 H           3.8542  -19.7933   -3.2506 H       1  LIG11       0.0913
     45 H           2.6911  -18.7804   -2.3164 H       1  LIG11       0.0913
     46 H           4.7211  -14.6203   -7.4172 H       1  LIG11       0.0658
     47 H           5.8533  -15.5802   -3.3197 H       1  LIG11       0.0622
     48 H           0.3648  -19.1539   -4.8980 H       1  LIG11       0.0623
     49 H           1.8772  -15.3370   -3.5373 H       1  LIG11       0.0623
     50 H           6.7030  -13.2994   -3.0343 H       1  LIG11       0.0655
     51 H          -1.8340  -18.6006   -4.0526 H       1  LIG11       0.0654
     52 H          -0.3681  -14.7867   -2.6953 H       1  LIG11       0.0654
     53 H           6.5042  -18.9167    0.2918 H       1  LIG11       0.0464
     54 H           5.5838  -19.9971    1.3135 H       1  LIG11       0.0464
     55 H           3.0531  -20.6549   -1.2064 H       1  LIG11       0.0464
     56 H           2.9400  -20.1931    0.4822 H       1  LIG11       0.0464
     57 H           5.5169  -18.0342    2.5125 H       1  LIG11       0.0280
     58 H           3.9393  -18.0170    1.7267 H       1  LIG11       0.0280
     59 H           3.3518  -22.5761    0.2044 H       1  LIG11       0.0280
     60 H           4.6790  -21.8673    1.0841 H       1  LIG11       0.0280
     61 H           5.7202  -10.1653   -6.3792 H       1  LIG11       0.1166
     62 H           7.2947  -10.8106   -6.9058 H       1  LIG11       0.1166
     63 H           4.6697  -16.3380    0.1307 H       1  LIG11       0.0263
     64 H           6.3733  -16.5725    0.5491 H       1  LIG11       0.0263
     65 H           4.7379  -22.5122   -1.9203 H       1  LIG11       0.0263
     66 H           5.2704  -23.5993   -0.6450 H       1  LIG11       0.0263
     67 H           4.2493  -15.4077    2.4137 H       1  LIG11       0.0230
     68 H           5.4921  -14.4987    1.5325 H       1  LIG11       0.0230
     69 H           5.9676  -15.6314    2.8065 H       1  LIG11       0.0230
     70 H           6.5770  -20.9620   -1.4208 H       1  LIG11       0.0230
     71 H           7.2452  -22.5870   -1.4934 H       1  LIG11       0.0230
     72 H           6.9667  -21.8308    0.0807 H       1  LIG11       0.0230
     73 H          -4.4879  -16.4622   -2.7579 H       1  LIG11       0.0660
     74 H          -3.5648  -17.9626   -2.6151 H       1  LIG11       0.0660
     75 H          -3.7157  -17.1193   -4.2054 H       1  LIG11       0.0660
@<TRIPOS>BOND
     1     1    16   ar
     2     2    16   ar
     3     3    22    1
     4     3    32    1
     5     4    18    2
     6     5    24    1
     7     5    32    1
     8     6    29    1
     9     6    37    1
    10     7    11    1
    11     7    12    1
    12     7    15    1
    13     8    18   am
    14     8    27    1
    15     8    28    1
    16     9    10    1
    17     9    11    1
    18     9    16    1
    19    10    12    1
    20    10    13    1
    21    11    14    1
    22    13    17   ar
    23    13    19   ar
    24    14    20   ar
    25    14    21   ar
    26    15    18    1
    27    17    22   ar
    28    19    23   ar
    29    20    25   ar
    30    21    26   ar
    31    22    24   ar
    32    23    24   ar
    33    25    29   ar
    34    26    29   ar
    35    27    30    1
    36    28    31    1
    37    30    33    1
    38    31    34    1
    39    33    35    1
    40    34    36    1
    41     7    38    1
    42     9    39    1
    43    10    40    1
    44    11    41    1
    45    12    42    1
    46    12    43    1
    47    15    44    1
    48    15    45    1
    49    17    46    1
    50    19    47    1
    51    20    48    1
    52    21    49    1
    53    23    50    1
    54    25    51    1
    55    26    52    1
    56    27    53    1
    57    27    54    1
    58    28    55    1
    59    28    56    1
    60    30    57    1
    61    30    58    1
    62    31    59    1
    63    31    60    1
    64    32    61    1
    65    32    62    1
    66    33    63    1
    67    33    64    1
    68    34    65    1
    69    34    66    1
    70    35    67    1
    71    35    68    1
    72    35    69    1
    73    36    70    1
    74    36    71    1
    75    36    72    1
    76    37    73    1
    77    37    74    1
    78    37    75    1
@<TRIPOS>MOLECULE
../1EDN/XRAY_17-21.pdb
 47 48 0 0 0
SMALL
GASTEIGER

@<TRIPOS>ATOM
      1  N          6.4500  -19.7300   -2.8460 N.3    17  LEU17      -0.1231
      2  CA         5.2640  -20.1680   -2.1160 C.3    17  LEU17       0.1693
      3  C          4.7010  -18.8060   -1.6720 C.2    17  LEU17       0.2592
      4  O          4.3760  -17.9800   -2.5270 O.2    17  LEU17      -0.2718
      5  CB         5.6570  -21.0170   -0.8850 C.3    17  LEU17       0.0284
      6  CG         5.4050  -22.5400   -0.8470 C.3    17  LEU17       0.0019
      7  CD1        6.1110  -23.2140    0.3150 C.3    17  LEU17       0.0001
      8  CD2        3.9240  -22.7940   -0.7690 C.3    17  LEU17       0.0001
      9  N          4.7270  -18.4910   -0.3800 N.am   18  ASP18      -0.1962
     10  CA         4.1720  -17.2010    0.0630 C.3    18  ASP18       0.1783
     11  C          4.7750  -15.8130   -0.3500 C.2    18  ASP18       0.2620
     12  O          4.1570  -14.7710   -0.0750 O.2    18  ASP18      -0.2715
     13  CB         3.8720  -17.2370    1.5730 C.3    18  ASP18       0.0728
     14  CG         2.4440  -17.7210    1.8880 C.2    18  ASP18       0.0526
     15  OD1        1.8320  -18.4410    1.0660 O.co2  18  ASP18      -0.5491
     16  OD2        1.9260  -17.3730    2.9700 O.co2  18  ASP18      -0.5491
     17  N          5.9570  -15.7420   -0.9630 N.am   19  ILE19      -0.1963
     18  CA         6.4450  -14.4030   -1.3510 C.3    19  ILE19       0.1727
     19  C          5.5760  -13.9960   -2.5290 C.2    19  ILE19       0.2616
     20  O          4.8370  -13.0080   -2.4770 O.2    19  ILE19      -0.2715
     21  CB         7.9140  -14.3690   -1.8400 C.3    19  ILE19       0.0290
     22  CG1        8.8760  -14.8240   -0.7490 C.3    19  ILE19       0.0022
     23  CG2        8.2810  -12.9320   -2.2380 C.3    19  ILE19       0.0023
     24  CD1        9.3280  -13.7050    0.1860 C.3    19  ILE19       0.0001
     25  N          5.7170  -14.7750   -3.5990 N.am   20  ILE20      -0.1963
     26  CA         4.9770  -14.6140   -4.8450 C.3    20  ILE20       0.1727
     27  C          4.7560  -16.0550   -5.2510 C.2    20  ILE20       0.2615
     28  O          5.5820  -16.9240   -4.9410 O.2    20  ILE20      -0.2715
     29  CB         5.8140  -13.8870   -5.9550 C.3    20  ILE20       0.0290
     30  CG1        5.9530  -12.3980   -5.6400 C.3    20  ILE20       0.0022
     31  CG2        5.1640  -14.0490   -7.3150 C.3    20  ILE20       0.0023
     32  CD1        6.8340  -11.6390   -6.6010 C.3    20  ILE20       0.0001
     33  N          3.6520  -16.3070   -5.9350 N.am   21  TRP21      -0.1988
     34  CA         3.3300  -17.6370   -6.4010 C.3    21  TRP21       0.1456
     35  C          2.5650  -17.6270   -7.7180 C.2    21  TRP21       0.1166
     36  O          1.8980  -18.6320   -8.0750 O.co2  21  TRP21      -0.3065
     37  CB         2.6690  -18.5180   -5.3120 C.3    21  TRP21       0.0562
     38  CG         1.5690  -17.9980   -4.3600 C.ar   21  TRP21       0.0005
     39  CD1        0.7990  -18.7930   -3.5490 C.ar   21  TRP21       0.0946
     40  CD2        1.2480  -16.6350   -3.9890 C.ar   21  TRP21       0.0152
     41  CE2        0.3020  -16.7070   -2.9250 C.ar   21  TRP21       0.0810
     42  CE3        1.6680  -15.3700   -4.4360 C.ar   21  TRP21       0.0012
     43  NE1        0.0520  -18.0350   -2.6840 N.ar   21  TRP21      -0.2442
     44  CZ2       -0.2230  -15.5590   -2.2950 C.ar   21  TRP21       0.0191
     45  CZ3        1.1420  -14.2140   -3.8060 C.ar   21  TRP21       0.0001
     46  CH2        0.2070  -14.3240   -2.7450 C.ar   21  TRP21       0.0015
     47  OXT        2.7400  -16.6140   -8.4280 O.co2  21  TRP21      -0.8460
@<TRIPOS>BOND
     1    47    35   ar
     2    36    35   ar
     3    35    34    1
     4    31    29    1
     5    32    30    1
     6    34    33    1
     7    34    37    1
     8    29    30    1
     9    29    26    1
    10    33    27   am
    11    37    38    1
    12    27    28    2
    13    27    26    1
    14    26    25    1
    15    42    40   ar
    16    42    45   ar
    17    38    40   ar
    18    38    39   ar
    19    40    41   ar
    20    45    46   ar
    21    25    19   am
    22    39    43   ar
    23    41    43   ar
    24    41    44   ar
    25     1     2    1
    26    46    44   ar
    27    19    20    2
    28    19    18    1
    29     4     3    2
    30    23    21    1
    31     2     3    1
    32     2     5    1
    33    21    18    1
    34    21    22    1
    35     3     9   am
    36    18    17    1
    37    17    11   am
    38     5     6    1
    39     6     8    1
    40     6     7    1
    41    22    24    1
    42     9    10    1
    43    11    12    2
    44    11    10    1
    45    10    13    1
    46    15    14   ar
    47    13    14    1
    48    14    16   ar
