@<TRIPOS>MOLECULE
9939443
 70 74 0 0 0
SMALL
GASTEIGER

@<TRIPOS>ATOM
      1 S           3.0982  -18.4788   -5.0535 S.O2    1  LIG11       0.0908
      2 O           5.3022  -17.1092   -2.0373 O.3     1  LIG11      -0.4435
      3 O           2.8109  -19.8232   -4.5859 O.2     1  LIG11      -0.1484
      4 O           2.9998  -18.1883   -6.4705 O.2     1  LIG11      -0.1484
      5 O           6.5042  -14.6100   -1.9983 O.3     1  LIG11      -0.4715
      6 O           4.7890  -19.0504   -0.0530 O.3     1  LIG11      -0.4914
      7 O           7.7646  -13.2398    0.2457 O.3     1  LIG11      -0.3917
      8 N           4.7036  -18.1751   -4.5855 N.pl3   1  LIG11      -0.1950
      9 N           2.0838  -16.0627   -4.5818 N.ar    1  LIG11      -0.2351
     10 N           5.1467  -16.1172   -5.5323 N.ar    1  LIG11      -0.2073
     11 N           5.9942  -14.2921   -4.2713 N.ar    1  LIG11      -0.1899
     12 N           5.2836  -12.3368   -8.8932 N.ar    1  LIG11      -0.2552
     13 N           5.8300   -9.5175   -8.6457 N.ar    1  LIG11      -0.5621
     14 N           6.5743   -9.8104   -6.5309 N.ar    1  LIG11      -0.1535
     15 N           6.2701   -8.3989   -8.0626 N.ar    1  LIG11      -0.3597
     16 N           6.7226   -8.5238   -6.8098 N.ar    1  LIG11      -0.0878
     17 C          -0.6384  -14.5308   -2.3920 C.3     1  LIG11      -0.0201
     18 C           0.3328  -15.5583   -2.9602 C.ar    1  LIG11      -0.0266
     19 C          -1.3603  -14.9732   -1.1102 C.3     1  LIG11      -0.0586
     20 C           0.0238  -13.1705   -2.1242 C.3     1  LIG11      -0.0586
     21 C           2.0474  -17.3481   -4.1506 C.ar    1  LIG11       0.1969
     22 C           0.3483  -16.9015   -2.5539 C.ar    1  LIG11      -0.0535
     23 C           1.2156  -15.2133   -3.9884 C.ar    1  LIG11       0.0332
     24 C           1.2101  -17.8165   -3.1551 C.ar    1  LIG11      -0.0160
     25 C           5.0429  -16.8049   -4.3910 C.ar    1  LIG11       0.1882
     26 C           5.3683  -16.3198   -3.1456 C.ar    1  LIG11       0.2307
     27 C           5.9423  -15.0680   -3.1699 C.ar    1  LIG11       0.2641
     28 C           5.5481  -14.8423   -5.4140 C.ar    1  LIG11       0.1659
     29 C           5.4827  -13.9885   -6.6134 C.ar    1  LIG11       0.0227
     30 C           4.3540  -16.8445   -1.0670 C.ar    1  LIG11       0.1702
     31 C           5.8272  -12.6265   -6.5655 C.ar    1  LIG11      -0.0252
     32 C           5.0369  -14.4903   -7.8449 C.ar    1  LIG11      -0.0328
     33 C           7.3503  -13.4631   -2.1374 C.3     1  LIG11       0.1143
     34 C           4.1523  -17.8343   -0.0887 C.ar    1  LIG11       0.1621
     35 C           5.7106  -11.8369   -7.7065 C.ar    1  LIG11       0.0708
     36 C           3.6363  -15.6451   -0.9601 C.ar    1  LIG11      -0.0157
     37 C           4.9592  -13.6428   -8.9348 C.ar    1  LIG11       0.0289
     38 C           8.3825  -13.4997   -1.0111 C.3     1  LIG11       0.0783
     39 C           3.2989  -17.5939    0.9934 C.ar    1  LIG11      -0.0163
     40 C           2.7740  -15.4187    0.1176 C.ar    1  LIG11      -0.0581
     41 C           2.6086  -16.3899    1.0973 C.ar    1  LIG11      -0.0581
     42 C           6.0317  -10.4070   -7.6534 C.ar    1  LIG11       0.0207
     43 C           4.7580  -19.7680   -1.2835 C.3     1  LIG11       0.0790
     44 H           8.3981  -13.5066    0.9339 H       1  LIG11       0.2095
     45 H           5.2341  -18.4464   -5.4160 H       1  LIG11       0.1754
     46 H           6.2598   -7.5011   -8.5390 H       1  LIG11       0.1651
     47 H          -1.4126  -14.3798   -3.1567 H       1  LIG11       0.0344
     48 H          -0.6490  -15.2099   -0.3110 H       1  LIG11       0.0235
     49 H          -1.9844  -15.8555   -1.2877 H       1  LIG11       0.0235
     50 H          -2.0262  -14.1839   -0.7444 H       1  LIG11       0.0235
     51 H           0.8817  -13.2691   -1.4516 H       1  LIG11       0.0235
     52 H          -0.6868  -12.4726   -1.6677 H       1  LIG11       0.0235
     53 H           0.3740  -12.6994   -3.0479 H       1  LIG11       0.0235
     54 H          -0.3172  -17.2692   -1.7774 H       1  LIG11       0.0622
     55 H           1.2468  -14.2071   -4.3984 H       1  LIG11       0.0833
     56 H           1.2056  -18.8601   -2.8583 H       1  LIG11       0.0653
     57 H           6.1661  -12.1831   -5.6312 H       1  LIG11       0.0646
     58 H           4.7367  -15.5292   -7.9549 H       1  LIG11       0.0640
     59 H           6.7303  -12.5633   -2.0664 H       1  LIG11       0.0720
     60 H           7.8979  -13.4729   -3.0875 H       1  LIG11       0.0720
     61 H           3.7437  -14.8409   -1.6822 H       1  LIG11       0.0655
     62 H           4.6135  -14.0055   -9.9007 H       1  LIG11       0.0830
     63 H           8.8555  -14.4865   -0.9618 H       1  LIG11       0.0591
     64 H           9.1508  -12.7375   -1.1727 H       1  LIG11       0.0591
     65 H           3.1777  -18.3540    1.7622 H       1  LIG11       0.0655
     66 H           2.2508  -14.4697    0.2016 H       1  LIG11       0.0619
     67 H           1.9539  -16.2067    1.9456 H       1  LIG11       0.0619
     68 H           4.7379  -20.8362   -1.0459 H       1  LIG11       0.0660
     69 H           5.6713  -19.5737   -1.8529 H       1  LIG11       0.0660
     70 H           3.8677  -19.5445   -1.8810 H       1  LIG11       0.0660
@<TRIPOS>BOND
     1     1    21    1
     2     1     8    1
     3     1     4    2
     4     1     3    2
     5     2    26    1
     6     2    30    1
     7     5    27    1
     8     5    33    1
     9     6    34    1
    10     6    43    1
    11     7    38    1
    12     8    25    1
    13     9    23   ar
    14     9    21   ar
    15    10    25   ar
    16    10    28   ar
    17    11    27   ar
    18    11    28   ar
    19    12    37   ar
    20    12    35   ar
    21    13    15   ar
    22    13    42   ar
    23    14    42   ar
    24    14    16   ar
    25    15    16   ar
    26    17    18    1
    27    17    20    1
    28    17    19    1
    29    18    23   ar
    30    18    22   ar
    31    21    24   ar
    32    22    24   ar
    33    25    26   ar
    34    26    27   ar
    35    28    29    1
    36    29    31   ar
    37    29    32   ar
    38    30    36   ar
    39    30    34   ar
    40    31    35   ar
    41    32    37   ar
    42    33    38    1
    43    34    39   ar
    44    35    42    1
    45    36    40   ar
    46    39    41   ar
    47    40    41   ar
    48     7    44    1
    49     8    45    1
    50    15    46    1
    51    17    47    1
    52    19    48    1
    53    19    49    1
    54    19    50    1
    55    20    51    1
    56    20    52    1
    57    20    53    1
    58    22    54    1
    59    23    55    1
    60    24    56    1
    61    31    57    1
    62    32    58    1
    63    33    59    1
    64    33    60    1
    65    36    61    1
    66    37    62    1
    67    38    63    1
    68    38    64    1
    69    39    65    1
    70    40    66    1
    71    41    67    1
    72    43    68    1
    73    43    69    1
    74    43    70    1
@<TRIPOS>MOLECULE
../1EDN/XRAY_17-21.pdb
 47 48 0 0 0
SMALL
GASTEIGER

@<TRIPOS>ATOM
      1  N          6.4500  -19.7300   -2.8460 N.3    17  LEU17      -0.1231
      2  CA         5.2640  -20.1680   -2.1160 C.3    17  LEU17       0.1693
      3  C          4.7010  -18.8060   -1.6720 C.2    17  LEU17       0.2592
      4  O          4.3760  -17.9800   -2.5270 O.2    17  LEU17      -0.2718
      5  CB         5.6570  -21.0170   -0.8850 C.3    17  LEU17       0.0284
      6  CG         5.4050  -22.5400   -0.8470 C.3    17  LEU17       0.0019
      7  CD1        6.1110  -23.2140    0.3150 C.3    17  LEU17       0.0001
      8  CD2        3.9240  -22.7940   -0.7690 C.3    17  LEU17       0.0001
      9  N          4.7270  -18.4910   -0.3800 N.am   18  ASP18      -0.1962
     10  CA         4.1720  -17.2010    0.0630 C.3    18  ASP18       0.1783
     11  C          4.7750  -15.8130   -0.3500 C.2    18  ASP18       0.2620
     12  O          4.1570  -14.7710   -0.0750 O.2    18  ASP18      -0.2715
     13  CB         3.8720  -17.2370    1.5730 C.3    18  ASP18       0.0728
     14  CG         2.4440  -17.7210    1.8880 C.2    18  ASP18       0.0526
     15  OD1        1.8320  -18.4410    1.0660 O.co2  18  ASP18      -0.5491
     16  OD2        1.9260  -17.3730    2.9700 O.co2  18  ASP18      -0.5491
     17  N          5.9570  -15.7420   -0.9630 N.am   19  ILE19      -0.1963
     18  CA         6.4450  -14.4030   -1.3510 C.3    19  ILE19       0.1727
     19  C          5.5760  -13.9960   -2.5290 C.2    19  ILE19       0.2616
     20  O          4.8370  -13.0080   -2.4770 O.2    19  ILE19      -0.2715
     21  CB         7.9140  -14.3690   -1.8400 C.3    19  ILE19       0.0290
     22  CG1        8.8760  -14.8240   -0.7490 C.3    19  ILE19       0.0022
     23  CG2        8.2810  -12.9320   -2.2380 C.3    19  ILE19       0.0023
     24  CD1        9.3280  -13.7050    0.1860 C.3    19  ILE19       0.0001
     25  N          5.7170  -14.7750   -3.5990 N.am   20  ILE20      -0.1963
     26  CA         4.9770  -14.6140   -4.8450 C.3    20  ILE20       0.1727
     27  C          4.7560  -16.0550   -5.2510 C.2    20  ILE20       0.2615
     28  O          5.5820  -16.9240   -4.9410 O.2    20  ILE20      -0.2715
     29  CB         5.8140  -13.8870   -5.9550 C.3    20  ILE20       0.0290
     30  CG1        5.9530  -12.3980   -5.6400 C.3    20  ILE20       0.0022
     31  CG2        5.1640  -14.0490   -7.3150 C.3    20  ILE20       0.0023
     32  CD1        6.8340  -11.6390   -6.6010 C.3    20  ILE20       0.0001
     33  N          3.6520  -16.3070   -5.9350 N.am   21  TRP21      -0.1988
     34  CA         3.3300  -17.6370   -6.4010 C.3    21  TRP21       0.1456
     35  C          2.5650  -17.6270   -7.7180 C.2    21  TRP21       0.1166
     36  O          1.8980  -18.6320   -8.0750 O.co2  21  TRP21      -0.3065
     37  CB         2.6690  -18.5180   -5.3120 C.3    21  TRP21       0.0562
     38  CG         1.5690  -17.9980   -4.3600 C.ar   21  TRP21       0.0005
     39  CD1        0.7990  -18.7930   -3.5490 C.ar   21  TRP21       0.0946
     40  CD2        1.2480  -16.6350   -3.9890 C.ar   21  TRP21       0.0152
     41  CE2        0.3020  -16.7070   -2.9250 C.ar   21  TRP21       0.0810
     42  CE3        1.6680  -15.3700   -4.4360 C.ar   21  TRP21       0.0012
     43  NE1        0.0520  -18.0350   -2.6840 N.ar   21  TRP21      -0.2442
     44  CZ2       -0.2230  -15.5590   -2.2950 C.ar   21  TRP21       0.0191
     45  CZ3        1.1420  -14.2140   -3.8060 C.ar   21  TRP21       0.0001
     46  CH2        0.2070  -14.3240   -2.7450 C.ar   21  TRP21       0.0015
     47  OXT        2.7400  -16.6140   -8.4280 O.co2  21  TRP21      -0.8460
@<TRIPOS>BOND
     1    47    35   ar
     2    36    35   ar
     3    35    34    1
     4    31    29    1
     5    32    30    1
     6    34    33    1
     7    34    37    1
     8    29    30    1
     9    29    26    1
    10    33    27   am
    11    37    38    1
    12    27    28    2
    13    27    26    1
    14    26    25    1
    15    42    40   ar
    16    42    45   ar
    17    38    40   ar
    18    38    39   ar
    19    40    41   ar
    20    45    46   ar
    21    25    19   am
    22    39    43   ar
    23    41    43   ar
    24    41    44   ar
    25     1     2    1
    26    46    44   ar
    27    19    20    2
    28    19    18    1
    29     4     3    2
    30    23    21    1
    31     2     3    1
    32     2     5    1
    33    21    18    1
    34    21    22    1
    35     3     9   am
    36    18    17    1
    37    17    11   am
    38     5     6    1
    39     6     8    1
    40     6     7    1
    41    22    24    1
    42     9    10    1
    43    11    12    2
    44    11    10    1
    45    10    13    1
    46    15    14   ar
    47    13    14    1
    48    14    16   ar
