@<TRIPOS>MOLECULE
156690
 70 73 0 0 0
SMALL
GASTEIGER

@<TRIPOS>ATOM
      1 S           3.9331  -15.8361   -5.5583 S.O2    1  LIG11       0.0741
      2 O           4.4088  -18.9492   -1.8282 O.2     1  LIG11      -0.2756
      3 O           3.4169  -16.7043   -6.6037 O.2     1  LIG11      -0.1499
      4 O           5.2077  -16.0970   -4.9321 O.2     1  LIG11      -0.1499
      5 O           8.3018  -15.0984    0.7356 O.2     1  LIG11      -0.4436
      6 O           6.5152  -12.8382   -7.9910 O.2     1  LIG11      -0.3578
      7 N           4.1056  -17.8994    0.1754 N.am    1  LIG11      -0.3002
      8 N           3.9129  -14.2394   -6.1476 N.pl3   1  LIG11      -0.1965
      9 N           9.1694  -13.9833   -1.0248 N.ar    1  LIG11      -0.2175
     10 N           5.8672  -13.1093   -6.8019 N.ar    1  LIG11      -0.0614
     11 C           5.8407  -21.2328   -0.7185 C.3     1  LIG11      -0.0295
     12 C           5.0504  -20.2029    0.1285 C.3     1  LIG11       0.0290
     13 C           5.0131  -21.8166   -1.8773 C.3     1  LIG11      -0.0596
     14 C           6.2307  -22.4013    0.2117 C.3     1  LIG11      -0.0596
     15 C           7.1283  -20.5930   -1.2621 C.3     1  LIG11      -0.0596
     16 C           4.5150  -18.9761   -0.6032 C.2     1  LIG11       0.2161
     17 C           3.5478  -16.7484   -0.5349 C.3     1  LIG11       0.0400
     18 C           4.5587  -15.8089   -1.1860 C.ar    1  LIG11      -0.0216
     19 C           4.2081  -15.0253   -2.3258 C.ar    1  LIG11      -0.0113
     20 C           2.8889  -15.1655   -2.9976 C.ar    1  LIG11       0.0090
     21 C           4.0072  -17.8840    1.6290 C.3     1  LIG11       0.0035
     22 C           5.8324  -15.6405   -0.5914 C.ar    1  LIG11      -0.0442
     23 C           2.6570  -15.6498   -4.3082 C.ar    1  LIG11       0.1162
     24 C           5.1394  -14.0717   -2.7696 C.ar    1  LIG11      -0.0529
     25 C           6.7751  -14.7373   -1.1017 C.ar    1  LIG11       0.0372
     26 C           6.4087  -13.9529   -2.1943 C.ar    1  LIG11      -0.0489
     27 C           1.7406  -14.8433   -2.2346 C.ar    1  LIG11      -0.0521
     28 C           1.3448  -15.9118   -4.7567 C.ar    1  LIG11      -0.0345
     29 C           0.4428  -15.0900   -2.6927 C.ar    1  LIG11      -0.0611
     30 C           8.1072  -14.5867   -0.5236 C.ar    1  LIG11       0.2271
     31 C           0.2463  -15.6486   -3.9464 C.ar    1  LIG11      -0.0599
     32 C           4.8343  -13.8887   -7.1265 C.ar    1  LIG11       0.1837
     33 C           4.7214  -14.0666   -8.5253 C.ar    1  LIG11       0.0342
     34 C           5.8209  -13.3927   -9.0183 C.ar    1  LIG11       0.1390
     35 C           3.6519  -14.7287   -9.3017 C.3     1  LIG11      -0.0330
     36 C           9.5987  -14.7923    1.0223 C.ar    1  LIG11       0.1125
     37 C          10.1259  -14.1295   -0.0550 C.ar    1  LIG11       0.0663
     38 C           6.3335  -13.1146  -10.3725 C.3     1  LIG11      -0.0034
     39 H           4.0458  -13.6195   -5.3552 H       1  LIG11       0.1753
     40 H           4.1867  -20.6952    0.5946 H       1  LIG11       0.0364
     41 H           5.7169  -19.8587    0.9297 H       1  LIG11       0.0364
     42 H           4.0293  -22.1507   -1.5320 H       1  LIG11       0.0235
     43 H           4.8632  -21.0988   -2.6878 H       1  LIG11       0.0235
     44 H           5.5204  -22.6805   -2.3232 H       1  LIG11       0.0235
     45 H           5.3407  -22.9105    0.5987 H       1  LIG11       0.0235
     46 H           6.8352  -23.1465   -0.3191 H       1  LIG11       0.0235
     47 H           6.8150  -22.0503    1.0690 H       1  LIG11       0.0235
     48 H           6.9151  -19.7635   -1.9445 H       1  LIG11       0.0235
     49 H           7.7473  -20.1991   -0.4465 H       1  LIG11       0.0235
     50 H           7.7321  -21.3236   -1.8124 H       1  LIG11       0.0235
     51 H           2.8601  -17.1552   -1.2847 H       1  LIG11       0.0514
     52 H           2.9510  -16.1616    0.1727 H       1  LIG11       0.0514
     53 H           4.3733  -18.7956    2.0966 H       1  LIG11       0.0429
     54 H           4.5769  -17.0324    2.0152 H       1  LIG11       0.0429
     55 H           2.9536  -17.7641    1.9056 H       1  LIG11       0.0429
     56 H           6.1025  -16.2406    0.2750 H       1  LIG11       0.0628
     57 H           4.9124  -13.3986   -3.5875 H       1  LIG11       0.0624
     58 H           7.1148  -13.2381   -2.6120 H       1  LIG11       0.0625
     59 H           1.8567  -14.4167   -1.2383 H       1  LIG11       0.0624
     60 H           1.1689  -16.3090   -5.7575 H       1  LIG11       0.0637
     61 H          -0.4104  -14.8589   -2.0597 H       1  LIG11       0.0618
     62 H          -0.7585  -15.8617   -4.3026 H       1  LIG11       0.0618
     63 H           2.8307  -15.0682   -8.6639 H       1  LIG11       0.0280
     64 H           3.2270  -14.0289  -10.0318 H       1  LIG11       0.0280
     65 H           4.0462  -15.5920   -9.8451 H       1  LIG11       0.0280
     66 H           9.9686  -15.1045    1.9859 H       1  LIG11       0.1046
     67 H          11.1302  -13.7474   -0.1827 H       1  LIG11       0.0862
     68 H           7.3739  -12.7709  -10.3414 H       1  LIG11       0.0309
     69 H           6.2916  -14.0113  -10.9967 H       1  LIG11       0.0309
     70 H           5.7335  -12.3326  -10.8496 H       1  LIG11       0.0309
@<TRIPOS>BOND
     1     1     3    2
     2     1     4    2
     3     1     8    1
     4     1    23    1
     5     2    16    2
     6     5    30   ar
     7     5    36   ar
     8     6    10   ar
     9     6    34   ar
    10     7    16   am
    11     7    17    1
    12     7    21    1
    13     8    32    1
    14     9    30   ar
    15     9    37   ar
    16    10    32   ar
    17    11    12    1
    18    11    13    1
    19    11    14    1
    20    11    15    1
    21    12    16    1
    22    17    18    1
    23    18    19   ar
    24    18    22   ar
    25    19    20    1
    26    19    24   ar
    27    20    23   ar
    28    20    27   ar
    29    22    25   ar
    30    23    28   ar
    31    24    26   ar
    32    25    26   ar
    33    25    30    1
    34    27    29   ar
    35    28    31   ar
    36    29    31   ar
    37    32    33   ar
    38    33    34   ar
    39    33    35    1
    40    34    38    1
    41    36    37   ar
    42     8    39    1
    43    12    40    1
    44    12    41    1
    45    13    42    1
    46    13    43    1
    47    13    44    1
    48    14    45    1
    49    14    46    1
    50    14    47    1
    51    15    48    1
    52    15    49    1
    53    15    50    1
    54    17    51    1
    55    17    52    1
    56    21    53    1
    57    21    54    1
    58    21    55    1
    59    22    56    1
    60    24    57    1
    61    26    58    1
    62    27    59    1
    63    28    60    1
    64    29    61    1
    65    31    62    1
    66    35    63    1
    67    35    64    1
    68    35    65    1
    69    36    66    1
    70    37    67    1
    71    38    68    1
    72    38    69    1
    73    38    70    1
@<TRIPOS>MOLECULE
../1EDN/XRAY_17-21.pdb
 47 48 0 0 0
SMALL
GASTEIGER

@<TRIPOS>ATOM
      1  N          6.4500  -19.7300   -2.8460 N.3    17  LEU17      -0.1231
      2  CA         5.2640  -20.1680   -2.1160 C.3    17  LEU17       0.1693
      3  C          4.7010  -18.8060   -1.6720 C.2    17  LEU17       0.2592
      4  O          4.3760  -17.9800   -2.5270 O.2    17  LEU17      -0.2718
      5  CB         5.6570  -21.0170   -0.8850 C.3    17  LEU17       0.0284
      6  CG         5.4050  -22.5400   -0.8470 C.3    17  LEU17       0.0019
      7  CD1        6.1110  -23.2140    0.3150 C.3    17  LEU17       0.0001
      8  CD2        3.9240  -22.7940   -0.7690 C.3    17  LEU17       0.0001
      9  N          4.7270  -18.4910   -0.3800 N.am   18  ASP18      -0.1962
     10  CA         4.1720  -17.2010    0.0630 C.3    18  ASP18       0.1783
     11  C          4.7750  -15.8130   -0.3500 C.2    18  ASP18       0.2620
     12  O          4.1570  -14.7710   -0.0750 O.2    18  ASP18      -0.2715
     13  CB         3.8720  -17.2370    1.5730 C.3    18  ASP18       0.0728
     14  CG         2.4440  -17.7210    1.8880 C.2    18  ASP18       0.0526
     15  OD1        1.8320  -18.4410    1.0660 O.co2  18  ASP18      -0.5491
     16  OD2        1.9260  -17.3730    2.9700 O.co2  18  ASP18      -0.5491
     17  N          5.9570  -15.7420   -0.9630 N.am   19  ILE19      -0.1963
     18  CA         6.4450  -14.4030   -1.3510 C.3    19  ILE19       0.1727
     19  C          5.5760  -13.9960   -2.5290 C.2    19  ILE19       0.2616
     20  O          4.8370  -13.0080   -2.4770 O.2    19  ILE19      -0.2715
     21  CB         7.9140  -14.3690   -1.8400 C.3    19  ILE19       0.0290
     22  CG1        8.8760  -14.8240   -0.7490 C.3    19  ILE19       0.0022
     23  CG2        8.2810  -12.9320   -2.2380 C.3    19  ILE19       0.0023
     24  CD1        9.3280  -13.7050    0.1860 C.3    19  ILE19       0.0001
     25  N          5.7170  -14.7750   -3.5990 N.am   20  ILE20      -0.1963
     26  CA         4.9770  -14.6140   -4.8450 C.3    20  ILE20       0.1727
     27  C          4.7560  -16.0550   -5.2510 C.2    20  ILE20       0.2615
     28  O          5.5820  -16.9240   -4.9410 O.2    20  ILE20      -0.2715
     29  CB         5.8140  -13.8870   -5.9550 C.3    20  ILE20       0.0290
     30  CG1        5.9530  -12.3980   -5.6400 C.3    20  ILE20       0.0022
     31  CG2        5.1640  -14.0490   -7.3150 C.3    20  ILE20       0.0023
     32  CD1        6.8340  -11.6390   -6.6010 C.3    20  ILE20       0.0001
     33  N          3.6520  -16.3070   -5.9350 N.am   21  TRP21      -0.1988
     34  CA         3.3300  -17.6370   -6.4010 C.3    21  TRP21       0.1456
     35  C          2.5650  -17.6270   -7.7180 C.2    21  TRP21       0.1166
     36  O          1.8980  -18.6320   -8.0750 O.co2  21  TRP21      -0.3065
     37  CB         2.6690  -18.5180   -5.3120 C.3    21  TRP21       0.0562
     38  CG         1.5690  -17.9980   -4.3600 C.ar   21  TRP21       0.0005
     39  CD1        0.7990  -18.7930   -3.5490 C.ar   21  TRP21       0.0946
     40  CD2        1.2480  -16.6350   -3.9890 C.ar   21  TRP21       0.0152
     41  CE2        0.3020  -16.7070   -2.9250 C.ar   21  TRP21       0.0810
     42  CE3        1.6680  -15.3700   -4.4360 C.ar   21  TRP21       0.0012
     43  NE1        0.0520  -18.0350   -2.6840 N.ar   21  TRP21      -0.2442
     44  CZ2       -0.2230  -15.5590   -2.2950 C.ar   21  TRP21       0.0191
     45  CZ3        1.1420  -14.2140   -3.8060 C.ar   21  TRP21       0.0001
     46  CH2        0.2070  -14.3240   -2.7450 C.ar   21  TRP21       0.0015
     47  OXT        2.7400  -16.6140   -8.4280 O.co2  21  TRP21      -0.8460
@<TRIPOS>BOND
     1    47    35   ar
     2    36    35   ar
     3    35    34    1
     4    31    29    1
     5    32    30    1
     6    34    33    1
     7    34    37    1
     8    29    30    1
     9    29    26    1
    10    33    27   am
    11    37    38    1
    12    27    28    2
    13    27    26    1
    14    26    25    1
    15    42    40   ar
    16    42    45   ar
    17    38    40   ar
    18    38    39   ar
    19    40    41   ar
    20    45    46   ar
    21    25    19   am
    22    39    43   ar
    23    41    43   ar
    24    41    44   ar
    25     1     2    1
    26    46    44   ar
    27    19    20    2
    28    19    18    1
    29     4     3    2
    30    23    21    1
    31     2     3    1
    32     2     5    1
    33    21    18    1
    34    21    22    1
    35     3     9   am
    36    18    17    1
    37    17    11   am
    38     5     6    1
    39     6     8    1
    40     6     7    1
    41    22    24    1
    42     9    10    1
    43    11    12    2
    44    11    10    1
    45    10    13    1
    46    15    14   ar
    47    13    14    1
    48    14    16   ar
