@<TRIPOS>MOLECULE
46174111
 44 47 0 0 0
SMALL
GASTEIGER

@<TRIPOS>ATOM
      1 CL          7.5931  -12.5859   -4.1151 Cl      1  LIG11      -0.0762
      2 S           4.8536  -14.6554   -5.3164 S.O2    1  LIG11       0.0758
      3 S           2.3392  -18.1014   -5.8066 S.2     1  LIG11      -0.0918
      4 O           5.0587  -21.2499   -2.2266 O.3     1  LIG11      -0.4526
      5 O           6.0517  -20.3548   -0.2193 O.3     1  LIG11      -0.4526
      6 O           2.4112  -15.2402   -3.2438 O.2     1  LIG11      -0.2911
      7 O           4.2925  -13.6825   -6.2275 O.2     1  LIG11      -0.1499
      8 O           6.2074  -15.1443   -5.4754 O.2     1  LIG11      -0.1499
      9 O           5.6110  -14.8692   -1.6727 O.2     1  LIG11      -0.3364
     10 N           4.6151  -14.0932   -3.7573 N.pl3   1  LIG11      -0.1821
     11 N           6.8138  -14.8027   -0.9938 N.ar    1  LIG11      -0.0798
     12 C           2.9781  -18.2156   -1.9619 C.ar    1  LIG11      -0.0333
     13 C           1.8731  -17.5014   -2.7138 C.3     1  LIG11       0.0366
     14 C           3.5651  -17.6882   -0.7765 C.ar    1  LIG11      -0.0432
     15 C           3.9259  -16.0890   -5.6973 C.ar    1  LIG11       0.1261
     16 C           2.9670  -16.7496   -4.9420 C.ar    1  LIG11       0.0814
     17 C           3.4573  -19.4334   -2.4877 C.ar    1  LIG11      -0.0123
     18 C           2.4099  -16.4098   -3.6385 C.2     1  LIG11       0.1759
     19 C           4.4901  -20.0765   -1.8416 C.ar    1  LIG11       0.1665
     20 C           5.0550  -19.5673   -0.7027 C.ar    1  LIG11       0.1665
     21 C           4.6137  -18.3884   -0.1457 C.ar    1  LIG11      -0.0130
     22 C           3.0703  -16.4415   -0.0901 C.3     1  LIG11      -0.0393
     23 C           4.1502  -16.7351   -6.9641 C.ar    1  LIG11      -0.0273
     24 C           6.0609  -21.4117   -1.2007 C.3     1  LIG11       0.2332
     25 C           3.3590  -17.8425   -7.1417 C.ar    1  LIG11      -0.0217
     26 C           5.7105  -14.2148   -2.8633 C.ar    1  LIG11       0.2554
     27 C           6.9614  -13.6421   -2.9453 C.ar    1  LIG11       0.1262
     28 C           7.6195  -14.0567   -1.7618 C.ar    1  LIG11       0.1009
     29 C           8.9882  -13.7303   -1.2989 C.3     1  LIG11      -0.0176
     30 H           3.7121  -14.3749   -3.3600 H       1  LIG11       0.1768
     31 H           1.2489  -18.2134   -3.2632 H       1  LIG11       0.0394
     32 H           1.1763  -17.0401   -2.0030 H       1  LIG11       0.0394
     33 H           3.0326  -19.8818   -3.3799 H       1  LIG11       0.0658
     34 H           5.0736  -18.0147    0.7646 H       1  LIG11       0.0658
     35 H           2.5749  -15.7498   -0.7722 H       1  LIG11       0.0278
     36 H           3.9057  -15.8917    0.3572 H       1  LIG11       0.0278
     37 H           2.3664  -16.7133    0.7030 H       1  LIG11       0.0278
     38 H           4.8652  -16.3890   -7.7037 H       1  LIG11       0.0643
     39 H           7.0480  -21.4404   -1.6766 H       1  LIG11       0.1166
     40 H           5.8886  -22.3661   -0.6903 H       1  LIG11       0.1166
     41 H           3.3273  -18.5030   -7.9986 H       1  LIG11       0.0694
     42 H           9.3752  -14.5036   -0.6272 H       1  LIG11       0.0294
     43 H           8.9867  -12.7779   -0.7590 H       1  LIG11       0.0294
     44 H           9.6825  -13.6473   -2.1409 H       1  LIG11       0.0294
@<TRIPOS>BOND
     1     1    27    1
     2     2    10    1
     3     2    15    1
     4     2     8    2
     5     2     7    2
     6     3    16   ar
     7     3    25   ar
     8     4    24    1
     9     4    19    1
    10     5    20    1
    11     5    24    1
    12     6    18    2
    13     9    11   ar
    14     9    26   ar
    15    10    26    1
    16    11    28   ar
    17    12    17   ar
    18    12    14   ar
    19    13    18    1
    20    13    12    1
    21    14    21   ar
    22    14    22    1
    23    15    23   ar
    24    15    16   ar
    25    16    18    1
    26    17    19   ar
    27    19    20   ar
    28    20    21   ar
    29    23    25   ar
    30    26    27   ar
    31    27    28   ar
    32    28    29    1
    33    10    30    1
    34    13    31    1
    35    13    32    1
    36    17    33    1
    37    21    34    1
    38    22    35    1
    39    22    36    1
    40    22    37    1
    41    23    38    1
    42    24    39    1
    43    24    40    1
    44    25    41    1
    45    29    42    1
    46    29    43    1
    47    29    44    1
@<TRIPOS>MOLECULE
../1EDN/XRAY_17-21.pdb
 47 48 0 0 0
SMALL
GASTEIGER

@<TRIPOS>ATOM
      1  N          6.4500  -19.7300   -2.8460 N.3    17  LEU17      -0.1231
      2  CA         5.2640  -20.1680   -2.1160 C.3    17  LEU17       0.1693
      3  C          4.7010  -18.8060   -1.6720 C.2    17  LEU17       0.2592
      4  O          4.3760  -17.9800   -2.5270 O.2    17  LEU17      -0.2718
      5  CB         5.6570  -21.0170   -0.8850 C.3    17  LEU17       0.0284
      6  CG         5.4050  -22.5400   -0.8470 C.3    17  LEU17       0.0019
      7  CD1        6.1110  -23.2140    0.3150 C.3    17  LEU17       0.0001
      8  CD2        3.9240  -22.7940   -0.7690 C.3    17  LEU17       0.0001
      9  N          4.7270  -18.4910   -0.3800 N.am   18  ASP18      -0.1962
     10  CA         4.1720  -17.2010    0.0630 C.3    18  ASP18       0.1783
     11  C          4.7750  -15.8130   -0.3500 C.2    18  ASP18       0.2620
     12  O          4.1570  -14.7710   -0.0750 O.2    18  ASP18      -0.2715
     13  CB         3.8720  -17.2370    1.5730 C.3    18  ASP18       0.0728
     14  CG         2.4440  -17.7210    1.8880 C.2    18  ASP18       0.0526
     15  OD1        1.8320  -18.4410    1.0660 O.co2  18  ASP18      -0.5491
     16  OD2        1.9260  -17.3730    2.9700 O.co2  18  ASP18      -0.5491
     17  N          5.9570  -15.7420   -0.9630 N.am   19  ILE19      -0.1963
     18  CA         6.4450  -14.4030   -1.3510 C.3    19  ILE19       0.1727
     19  C          5.5760  -13.9960   -2.5290 C.2    19  ILE19       0.2616
     20  O          4.8370  -13.0080   -2.4770 O.2    19  ILE19      -0.2715
     21  CB         7.9140  -14.3690   -1.8400 C.3    19  ILE19       0.0290
     22  CG1        8.8760  -14.8240   -0.7490 C.3    19  ILE19       0.0022
     23  CG2        8.2810  -12.9320   -2.2380 C.3    19  ILE19       0.0023
     24  CD1        9.3280  -13.7050    0.1860 C.3    19  ILE19       0.0001
     25  N          5.7170  -14.7750   -3.5990 N.am   20  ILE20      -0.1963
     26  CA         4.9770  -14.6140   -4.8450 C.3    20  ILE20       0.1727
     27  C          4.7560  -16.0550   -5.2510 C.2    20  ILE20       0.2615
     28  O          5.5820  -16.9240   -4.9410 O.2    20  ILE20      -0.2715
     29  CB         5.8140  -13.8870   -5.9550 C.3    20  ILE20       0.0290
     30  CG1        5.9530  -12.3980   -5.6400 C.3    20  ILE20       0.0022
     31  CG2        5.1640  -14.0490   -7.3150 C.3    20  ILE20       0.0023
     32  CD1        6.8340  -11.6390   -6.6010 C.3    20  ILE20       0.0001
     33  N          3.6520  -16.3070   -5.9350 N.am   21  TRP21      -0.1988
     34  CA         3.3300  -17.6370   -6.4010 C.3    21  TRP21       0.1456
     35  C          2.5650  -17.6270   -7.7180 C.2    21  TRP21       0.1166
     36  O          1.8980  -18.6320   -8.0750 O.co2  21  TRP21      -0.3065
     37  CB         2.6690  -18.5180   -5.3120 C.3    21  TRP21       0.0562
     38  CG         1.5690  -17.9980   -4.3600 C.ar   21  TRP21       0.0005
     39  CD1        0.7990  -18.7930   -3.5490 C.ar   21  TRP21       0.0946
     40  CD2        1.2480  -16.6350   -3.9890 C.ar   21  TRP21       0.0152
     41  CE2        0.3020  -16.7070   -2.9250 C.ar   21  TRP21       0.0810
     42  CE3        1.6680  -15.3700   -4.4360 C.ar   21  TRP21       0.0012
     43  NE1        0.0520  -18.0350   -2.6840 N.ar   21  TRP21      -0.2442
     44  CZ2       -0.2230  -15.5590   -2.2950 C.ar   21  TRP21       0.0191
     45  CZ3        1.1420  -14.2140   -3.8060 C.ar   21  TRP21       0.0001
     46  CH2        0.2070  -14.3240   -2.7450 C.ar   21  TRP21       0.0015
     47  OXT        2.7400  -16.6140   -8.4280 O.co2  21  TRP21      -0.8460
@<TRIPOS>BOND
     1    47    35   ar
     2    36    35   ar
     3    35    34    1
     4    31    29    1
     5    32    30    1
     6    34    33    1
     7    34    37    1
     8    29    30    1
     9    29    26    1
    10    33    27   am
    11    37    38    1
    12    27    28    2
    13    27    26    1
    14    26    25    1
    15    42    40   ar
    16    42    45   ar
    17    38    40   ar
    18    38    39   ar
    19    40    41   ar
    20    45    46   ar
    21    25    19   am
    22    39    43   ar
    23    41    43   ar
    24    41    44   ar
    25     1     2    1
    26    46    44   ar
    27    19    20    2
    28    19    18    1
    29     4     3    2
    30    23    21    1
    31     2     3    1
    32     2     5    1
    33    21    18    1
    34    21    22    1
    35     3     9   am
    36    18    17    1
    37    17    11   am
    38     5     6    1
    39     6     8    1
    40     6     7    1
    41    22    24    1
    42     9    10    1
    43    11    12    2
    44    11    10    1
    45    10    13    1
    46    15    14   ar
    47    13    14    1
    48    14    16   ar
