@<TRIPOS>MOLECULE
3047752
 70 74 0 0 0
SMALL
GASTEIGER

@<TRIPOS>ATOM
      1 O           5.2655  -13.6076   -0.6072 O.co2   1  LIG11      -0.5495
      2 O           7.2009  -14.2680   -1.6064 O.co2   1  LIG11      -0.5495
      3 O           5.6666  -14.7992   -8.0074 O.3     1  LIG11      -0.4526
      4 O           6.9761  -12.7709   -8.0148 O.3     1  LIG11      -0.4526
      5 O           5.9810  -21.6332   -1.4050 O.3     1  LIG11      -0.4951
      6 O           1.4636  -17.8371    2.7160 O.co2   1  LIG11      -0.5495
      7 O           3.0388  -18.5668    4.1876 O.co2   1  LIG11      -0.5495
      8 N           1.9511  -16.9333   -2.6013 N.ar    1  LIG11      -0.2556
      9 C           5.1751  -15.1600   -2.4038 C.3     1  LIG11       0.0217
     10 C           4.2162  -16.1663   -1.7055 C.3     1  LIG11       0.0357
     11 C           4.3109  -14.1720   -3.2273 C.3     1  LIG11       0.0199
     12 C           3.0260  -14.9317   -3.4010 C.ar    1  LIG11      -0.0174
     13 C           2.9862  -16.0660   -2.6058 C.ar    1  LIG11       0.0534
     14 C           4.6943  -17.6157   -1.5364 C.ar    1  LIG11      -0.0344
     15 C           5.0062  -13.7775   -4.5306 C.ar    1  LIG11      -0.0356
     16 C           5.9476  -14.2844   -1.4225 C.2     1  LIG11       0.0466
     17 C           1.9322  -14.6131   -4.1902 C.ar    1  LIG11      -0.0546
     18 C           4.2032  -18.4590   -0.5054 C.ar    1  LIG11      -0.0395
     19 C           5.5819  -18.1881   -2.4716 C.ar    1  LIG11      -0.0542
     20 C           0.9000  -16.6373   -3.4014 C.ar    1  LIG11       0.0416
     21 C           4.9469  -14.5749   -5.6888 C.ar    1  LIG11      -0.0124
     22 C           0.8495  -15.4859   -4.1930 C.ar    1  LIG11      -0.0401
     23 C           5.7947  -12.6015   -4.5460 C.ar    1  LIG11      -0.0543
     24 C           3.1800  -18.0371    0.5499 C.3     1  LIG11      -0.0196
     25 C           4.6270  -19.8112   -0.4483 C.ar    1  LIG11      -0.0165
     26 C          -0.2269  -17.6361   -3.4295 C.3     1  LIG11      -0.0104
     27 C           3.7371  -18.0479    1.9841 C.3     1  LIG11      -0.0003
     28 C           5.6309  -14.1539   -6.8096 C.ar    1  LIG11       0.1665
     29 C           5.9974  -19.5208   -2.3834 C.ar    1  LIG11      -0.0197
     30 C           6.4835  -12.2021   -5.6960 C.ar    1  LIG11      -0.0159
     31 C           5.5206  -20.3438   -1.3736 C.ar    1  LIG11       0.1204
     32 C           6.3764  -12.9979   -6.8140 C.ar    1  LIG11       0.1662
     33 C           0.0459  -18.8243   -4.3592 C.3     1  LIG11      -0.0479
     34 C           4.5732  -16.8057    2.2755 C.3     1  LIG11      -0.0570
     35 C           0.0667  -18.4405   -5.8426 C.3     1  LIG11      -0.0556
     36 C           2.6399  -18.1411    3.0606 C.2     1  LIG11       0.0449
     37 C           6.5505  -13.9367   -8.7474 C.3     1  LIG11       0.2332
     38 C           0.2133  -19.6634   -6.7344 C.3     1  LIG11      -0.0653
     39 C           5.4634  -22.5050   -0.4084 C.3     1  LIG11       0.0788
     40 H           5.8973  -15.6516   -3.0606 H       1  LIG11       0.0379
     41 H           3.9519  -15.7641   -0.7221 H       1  LIG11       0.0419
     42 H           4.0527  -13.2551   -2.6810 H       1  LIG11       0.0404
     43 H           1.9272  -13.7128   -4.7943 H       1  LIG11       0.0622
     44 H           5.9609  -17.6125   -3.3094 H       1  LIG11       0.0622
     45 H           4.3921  -15.5072   -5.7074 H       1  LIG11       0.0658
     46 H          -0.0156  -15.2772   -4.8113 H       1  LIG11       0.0636
     47 H           5.8950  -12.0145   -3.6320 H       1  LIG11       0.0622
     48 H           2.3446  -18.7475    0.4687 H       1  LIG11       0.0319
     49 H           2.7337  -17.0649    0.3237 H       1  LIG11       0.0319
     50 H           4.2161  -20.4264    0.3470 H       1  LIG11       0.0657
     51 H          -1.1666  -17.1425   -3.7068 H       1  LIG11       0.0328
     52 H          -0.3724  -18.0141   -2.4092 H       1  LIG11       0.0328
     53 H           4.3758  -18.9280    2.1310 H       1  LIG11       0.0361
     54 H           6.6892  -19.9131   -3.1219 H       1  LIG11       0.0654
     55 H           7.0972  -11.3098   -5.6927 H       1  LIG11       0.0655
     56 H          -0.7415  -19.5709   -4.1979 H       1  LIG11       0.0269
     57 H           0.9965  -19.3024   -4.0909 H       1  LIG11       0.0269
     58 H           3.9873  -15.8893    2.1436 H       1  LIG11       0.0236
     59 H           5.4403  -16.7531    1.6088 H       1  LIG11       0.0236
     60 H           4.9501  -16.8108    3.3044 H       1  LIG11       0.0236
     61 H           0.8993  -17.7596   -6.0470 H       1  LIG11       0.0263
     62 H          -0.8588  -17.9146   -6.1045 H       1  LIG11       0.0263
     63 H           6.0349  -13.6067   -9.6566 H       1  LIG11       0.1166
     64 H           7.4378  -14.5108   -9.0397 H       1  LIG11       0.1166
     65 H           1.1413  -20.2009   -6.5144 H       1  LIG11       0.0230
     66 H           0.2361  -19.3632   -7.7863 H       1  LIG11       0.0230
     67 H          -0.6256  -20.3533   -6.5970 H       1  LIG11       0.0230
     68 H           5.9069  -23.4928   -0.5681 H       1  LIG11       0.0660
     69 H           4.3776  -22.6127   -0.5021 H       1  LIG11       0.0660
     70 H           5.7464  -22.1738    0.5965 H       1  LIG11       0.0660
@<TRIPOS>BOND
     1     1    16   ar
     2     2    16   ar
     3     3    28    1
     4     3    37    1
     5     4    32    1
     6     4    37    1
     7     5    31    1
     8     5    39    1
     9     6    36   ar
    10     7    36   ar
    11     8    13   ar
    12     8    20   ar
    13     9    10    1
    14     9    11    1
    15     9    16    1
    16    10    13    1
    17    10    14    1
    18    11    12    1
    19    11    15    1
    20    12    13   ar
    21    12    17   ar
    22    14    18   ar
    23    14    19   ar
    24    15    21   ar
    25    15    23   ar
    26    17    22   ar
    27    18    24    1
    28    18    25   ar
    29    19    29   ar
    30    20    22   ar
    31    20    26    1
    32    21    28   ar
    33    23    30   ar
    34    24    27    1
    35    25    31   ar
    36    26    33    1
    37    27    34    1
    38    27    36    1
    39    28    32   ar
    40    29    31   ar
    41    30    32   ar
    42    33    35    1
    43    35    38    1
    44     9    40    1
    45    10    41    1
    46    11    42    1
    47    17    43    1
    48    19    44    1
    49    21    45    1
    50    22    46    1
    51    23    47    1
    52    24    48    1
    53    24    49    1
    54    25    50    1
    55    26    51    1
    56    26    52    1
    57    27    53    1
    58    29    54    1
    59    30    55    1
    60    33    56    1
    61    33    57    1
    62    34    58    1
    63    34    59    1
    64    34    60    1
    65    35    61    1
    66    35    62    1
    67    37    63    1
    68    37    64    1
    69    38    65    1
    70    38    66    1
    71    38    67    1
    72    39    68    1
    73    39    69    1
    74    39    70    1
@<TRIPOS>MOLECULE
../1EDN/XRAY_17-21.pdb
 47 48 0 0 0
SMALL
GASTEIGER

@<TRIPOS>ATOM
      1  N          6.4500  -19.7300   -2.8460 N.3    17  LEU17      -0.1231
      2  CA         5.2640  -20.1680   -2.1160 C.3    17  LEU17       0.1693
      3  C          4.7010  -18.8060   -1.6720 C.2    17  LEU17       0.2592
      4  O          4.3760  -17.9800   -2.5270 O.2    17  LEU17      -0.2718
      5  CB         5.6570  -21.0170   -0.8850 C.3    17  LEU17       0.0284
      6  CG         5.4050  -22.5400   -0.8470 C.3    17  LEU17       0.0019
      7  CD1        6.1110  -23.2140    0.3150 C.3    17  LEU17       0.0001
      8  CD2        3.9240  -22.7940   -0.7690 C.3    17  LEU17       0.0001
      9  N          4.7270  -18.4910   -0.3800 N.am   18  ASP18      -0.1962
     10  CA         4.1720  -17.2010    0.0630 C.3    18  ASP18       0.1783
     11  C          4.7750  -15.8130   -0.3500 C.2    18  ASP18       0.2620
     12  O          4.1570  -14.7710   -0.0750 O.2    18  ASP18      -0.2715
     13  CB         3.8720  -17.2370    1.5730 C.3    18  ASP18       0.0728
     14  CG         2.4440  -17.7210    1.8880 C.2    18  ASP18       0.0526
     15  OD1        1.8320  -18.4410    1.0660 O.co2  18  ASP18      -0.5491
     16  OD2        1.9260  -17.3730    2.9700 O.co2  18  ASP18      -0.5491
     17  N          5.9570  -15.7420   -0.9630 N.am   19  ILE19      -0.1963
     18  CA         6.4450  -14.4030   -1.3510 C.3    19  ILE19       0.1727
     19  C          5.5760  -13.9960   -2.5290 C.2    19  ILE19       0.2616
     20  O          4.8370  -13.0080   -2.4770 O.2    19  ILE19      -0.2715
     21  CB         7.9140  -14.3690   -1.8400 C.3    19  ILE19       0.0290
     22  CG1        8.8760  -14.8240   -0.7490 C.3    19  ILE19       0.0022
     23  CG2        8.2810  -12.9320   -2.2380 C.3    19  ILE19       0.0023
     24  CD1        9.3280  -13.7050    0.1860 C.3    19  ILE19       0.0001
     25  N          5.7170  -14.7750   -3.5990 N.am   20  ILE20      -0.1963
     26  CA         4.9770  -14.6140   -4.8450 C.3    20  ILE20       0.1727
     27  C          4.7560  -16.0550   -5.2510 C.2    20  ILE20       0.2615
     28  O          5.5820  -16.9240   -4.9410 O.2    20  ILE20      -0.2715
     29  CB         5.8140  -13.8870   -5.9550 C.3    20  ILE20       0.0290
     30  CG1        5.9530  -12.3980   -5.6400 C.3    20  ILE20       0.0022
     31  CG2        5.1640  -14.0490   -7.3150 C.3    20  ILE20       0.0023
     32  CD1        6.8340  -11.6390   -6.6010 C.3    20  ILE20       0.0001
     33  N          3.6520  -16.3070   -5.9350 N.am   21  TRP21      -0.1988
     34  CA         3.3300  -17.6370   -6.4010 C.3    21  TRP21       0.1456
     35  C          2.5650  -17.6270   -7.7180 C.2    21  TRP21       0.1166
     36  O          1.8980  -18.6320   -8.0750 O.co2  21  TRP21      -0.3065
     37  CB         2.6690  -18.5180   -5.3120 C.3    21  TRP21       0.0562
     38  CG         1.5690  -17.9980   -4.3600 C.ar   21  TRP21       0.0005
     39  CD1        0.7990  -18.7930   -3.5490 C.ar   21  TRP21       0.0946
     40  CD2        1.2480  -16.6350   -3.9890 C.ar   21  TRP21       0.0152
     41  CE2        0.3020  -16.7070   -2.9250 C.ar   21  TRP21       0.0810
     42  CE3        1.6680  -15.3700   -4.4360 C.ar   21  TRP21       0.0012
     43  NE1        0.0520  -18.0350   -2.6840 N.ar   21  TRP21      -0.2442
     44  CZ2       -0.2230  -15.5590   -2.2950 C.ar   21  TRP21       0.0191
     45  CZ3        1.1420  -14.2140   -3.8060 C.ar   21  TRP21       0.0001
     46  CH2        0.2070  -14.3240   -2.7450 C.ar   21  TRP21       0.0015
     47  OXT        2.7400  -16.6140   -8.4280 O.co2  21  TRP21      -0.8460
@<TRIPOS>BOND
     1    47    35   ar
     2    36    35   ar
     3    35    34    1
     4    31    29    1
     5    32    30    1
     6    34    33    1
     7    34    37    1
     8    29    30    1
     9    29    26    1
    10    33    27   am
    11    37    38    1
    12    27    28    2
    13    27    26    1
    14    26    25    1
    15    42    40   ar
    16    42    45   ar
    17    38    40   ar
    18    38    39   ar
    19    40    41   ar
    20    45    46   ar
    21    25    19   am
    22    39    43   ar
    23    41    43   ar
    24    41    44   ar
    25     1     2    1
    26    46    44   ar
    27    19    20    2
    28    19    18    1
    29     4     3    2
    30    23    21    1
    31     2     3    1
    32     2     5    1
    33    21    18    1
    34    21    22    1
    35     3     9   am
    36    18    17    1
    37    17    11   am
    38     5     6    1
    39     6     8    1
    40     6     7    1
    41    22    24    1
    42     9    10    1
    43    11    12    2
    44    11    10    1
    45    10    13    1
    46    15    14   ar
    47    13    14    1
    48    14    16   ar
