@<TRIPOS>MOLECULE
9910224
 46 49 0 0 0
SMALL
GASTEIGER

@<TRIPOS>ATOM
      1 S           2.8326  -16.0446   -2.7526 S.O2    1  LIG11       0.0756
      2 O           1.8094  -16.5658   -1.8686 O.2     1  LIG11      -0.1499
      3 O           2.8076  -14.6384   -3.0973 O.2     1  LIG11      -0.1499
      4 O           3.8740  -17.2311    0.6288 O.3     1  LIG11      -0.4773
      5 O           6.5784  -11.3007   -7.5663 O.2     1  LIG11      -0.4229
      6 N           4.3227  -16.3525   -2.0174 N.pl3   1  LIG11      -0.1951
      7 N           3.3554  -17.3633   -6.5460 N.ar    1  LIG11      -0.2530
      8 N           4.8568  -18.5363   -2.6213 N.ar    1  LIG11      -0.2325
      9 N           4.3089  -19.4781    0.0046 N.ar    1  LIG11      -0.2137
     10 N           7.7939  -11.5041   -5.6999 N.ar    1  LIG11      -0.1076
     11 N           8.2828  -10.4267   -6.4131 N.ar    1  LIG11      -0.1156
     12 C           2.8117  -16.9992   -4.2371 C.ar    1  LIG11       0.1344
     13 C           3.4691  -16.6179   -5.4025 C.ar    1  LIG11       0.0975
     14 C           4.3091  -15.4242   -5.6074 C.ar    1  LIG11       0.0023
     15 C           2.0125  -18.1564   -4.2544 C.ar    1  LIG11      -0.0315
     16 C           3.9929  -14.5214   -6.6382 C.ar    1  LIG11      -0.0518
     17 C           5.4731  -15.1776   -4.8669 C.ar    1  LIG11      -0.0518
     18 C           4.4937  -17.7089   -1.6219 C.ar    1  LIG11       0.2006
     19 C           5.9357  -13.1470   -6.1410 C.ar    1  LIG11       0.0385
     20 C           4.7914  -13.4032   -6.9047 C.ar    1  LIG11      -0.0488
     21 C           6.2626  -14.0450   -5.1153 C.ar    1  LIG11      -0.0488
     22 C           1.9101  -18.9142   -5.4131 C.ar    1  LIG11      -0.0417
     23 C           2.5976  -18.4804   -6.5262 C.ar    1  LIG11       0.0284
     24 C           4.2157  -18.1671   -0.3285 C.ar    1  LIG11       0.2574
     25 C           6.7903  -11.9962   -6.4004 C.ar    1  LIG11       0.2480
     26 C           4.6739  -20.3162   -0.9985 C.ar    1  LIG11       0.0602
     27 C           4.9475  -19.8432   -2.2801 C.ar    1  LIG11       0.0510
     28 C           4.7805  -21.7772   -0.6905 C.3     1  LIG11      -0.0208
     29 C           3.5641  -17.8175    1.8896 C.3     1  LIG11       0.0805
     30 C           7.5485  -10.3497   -7.4965 C.ar    1  LIG11       0.2047
     31 H           4.4027  -15.7204   -1.2196 H       1  LIG11       0.1754
     32 H           1.4678  -18.4720   -3.3672 H       1  LIG11       0.0638
     33 H           3.1161  -14.7016   -7.2596 H       1  LIG11       0.0624
     34 H           5.7978  -15.8757   -4.0993 H       1  LIG11       0.0624
     35 H           4.5057  -12.7416   -7.7193 H       1  LIG11       0.0625
     36 H           7.1524  -13.8805   -4.5094 H       1  LIG11       0.0625
     37 H           1.3034  -19.8118   -5.4466 H       1  LIG11       0.0633
     38 H           2.5550  -19.0272   -7.4640 H       1  LIG11       0.0830
     39 H           5.2446  -20.5124   -3.0817 H       1  LIG11       0.0848
     40 H           4.4698  -21.9820    0.3387 H       1  LIG11       0.0293
     41 H           5.8148  -22.1141   -0.8106 H       1  LIG11       0.0293
     42 H           4.1351  -22.3538   -1.3606 H       1  LIG11       0.0293
     43 H           3.2780  -17.0111    2.5718 H       1  LIG11       0.0660
     44 H           4.4394  -18.3191    2.3175 H       1  LIG11       0.0660
     45 H           2.7152  -18.5055    1.8122 H       1  LIG11       0.0660
     46 H           7.6183   -9.6492   -8.3144 H       1  LIG11       0.1272
@<TRIPOS>BOND
     1     1     2    2
     2     1     3    2
     3     1     6    1
     4     1    12    1
     5     4    24    1
     6     4    29    1
     7     5    25   ar
     8     5    30   ar
     9     6    18    1
    10     7    13   ar
    11     7    23   ar
    12     8    18   ar
    13     8    27   ar
    14     9    24   ar
    15     9    26   ar
    16    10    11   ar
    17    10    25   ar
    18    11    30   ar
    19    12    13   ar
    20    12    15   ar
    21    13    14    1
    22    14    16   ar
    23    14    17   ar
    24    15    22   ar
    25    16    20   ar
    26    17    21   ar
    27    18    24   ar
    28    19    20   ar
    29    19    21   ar
    30    19    25    1
    31    22    23   ar
    32    26    27   ar
    33    26    28    1
    34     6    31    1
    35    15    32    1
    36    16    33    1
    37    17    34    1
    38    20    35    1
    39    21    36    1
    40    22    37    1
    41    23    38    1
    42    27    39    1
    43    28    40    1
    44    28    41    1
    45    28    42    1
    46    29    43    1
    47    29    44    1
    48    29    45    1
    49    30    46    1
@<TRIPOS>MOLECULE
../1EDN/XRAY_17-21.pdb
 47 48 0 0 0
SMALL
GASTEIGER

@<TRIPOS>ATOM
      1  N          6.4500  -19.7300   -2.8460 N.3    17  LEU17      -0.1231
      2  CA         5.2640  -20.1680   -2.1160 C.3    17  LEU17       0.1693
      3  C          4.7010  -18.8060   -1.6720 C.2    17  LEU17       0.2592
      4  O          4.3760  -17.9800   -2.5270 O.2    17  LEU17      -0.2718
      5  CB         5.6570  -21.0170   -0.8850 C.3    17  LEU17       0.0284
      6  CG         5.4050  -22.5400   -0.8470 C.3    17  LEU17       0.0019
      7  CD1        6.1110  -23.2140    0.3150 C.3    17  LEU17       0.0001
      8  CD2        3.9240  -22.7940   -0.7690 C.3    17  LEU17       0.0001
      9  N          4.7270  -18.4910   -0.3800 N.am   18  ASP18      -0.1962
     10  CA         4.1720  -17.2010    0.0630 C.3    18  ASP18       0.1783
     11  C          4.7750  -15.8130   -0.3500 C.2    18  ASP18       0.2620
     12  O          4.1570  -14.7710   -0.0750 O.2    18  ASP18      -0.2715
     13  CB         3.8720  -17.2370    1.5730 C.3    18  ASP18       0.0728
     14  CG         2.4440  -17.7210    1.8880 C.2    18  ASP18       0.0526
     15  OD1        1.8320  -18.4410    1.0660 O.co2  18  ASP18      -0.5491
     16  OD2        1.9260  -17.3730    2.9700 O.co2  18  ASP18      -0.5491
     17  N          5.9570  -15.7420   -0.9630 N.am   19  ILE19      -0.1963
     18  CA         6.4450  -14.4030   -1.3510 C.3    19  ILE19       0.1727
     19  C          5.5760  -13.9960   -2.5290 C.2    19  ILE19       0.2616
     20  O          4.8370  -13.0080   -2.4770 O.2    19  ILE19      -0.2715
     21  CB         7.9140  -14.3690   -1.8400 C.3    19  ILE19       0.0290
     22  CG1        8.8760  -14.8240   -0.7490 C.3    19  ILE19       0.0022
     23  CG2        8.2810  -12.9320   -2.2380 C.3    19  ILE19       0.0023
     24  CD1        9.3280  -13.7050    0.1860 C.3    19  ILE19       0.0001
     25  N          5.7170  -14.7750   -3.5990 N.am   20  ILE20      -0.1963
     26  CA         4.9770  -14.6140   -4.8450 C.3    20  ILE20       0.1727
     27  C          4.7560  -16.0550   -5.2510 C.2    20  ILE20       0.2615
     28  O          5.5820  -16.9240   -4.9410 O.2    20  ILE20      -0.2715
     29  CB         5.8140  -13.8870   -5.9550 C.3    20  ILE20       0.0290
     30  CG1        5.9530  -12.3980   -5.6400 C.3    20  ILE20       0.0022
     31  CG2        5.1640  -14.0490   -7.3150 C.3    20  ILE20       0.0023
     32  CD1        6.8340  -11.6390   -6.6010 C.3    20  ILE20       0.0001
     33  N          3.6520  -16.3070   -5.9350 N.am   21  TRP21      -0.1988
     34  CA         3.3300  -17.6370   -6.4010 C.3    21  TRP21       0.1456
     35  C          2.5650  -17.6270   -7.7180 C.2    21  TRP21       0.1166
     36  O          1.8980  -18.6320   -8.0750 O.co2  21  TRP21      -0.3065
     37  CB         2.6690  -18.5180   -5.3120 C.3    21  TRP21       0.0562
     38  CG         1.5690  -17.9980   -4.3600 C.ar   21  TRP21       0.0005
     39  CD1        0.7990  -18.7930   -3.5490 C.ar   21  TRP21       0.0946
     40  CD2        1.2480  -16.6350   -3.9890 C.ar   21  TRP21       0.0152
     41  CE2        0.3020  -16.7070   -2.9250 C.ar   21  TRP21       0.0810
     42  CE3        1.6680  -15.3700   -4.4360 C.ar   21  TRP21       0.0012
     43  NE1        0.0520  -18.0350   -2.6840 N.ar   21  TRP21      -0.2442
     44  CZ2       -0.2230  -15.5590   -2.2950 C.ar   21  TRP21       0.0191
     45  CZ3        1.1420  -14.2140   -3.8060 C.ar   21  TRP21       0.0001
     46  CH2        0.2070  -14.3240   -2.7450 C.ar   21  TRP21       0.0015
     47  OXT        2.7400  -16.6140   -8.4280 O.co2  21  TRP21      -0.8460
@<TRIPOS>BOND
     1    47    35   ar
     2    36    35   ar
     3    35    34    1
     4    31    29    1
     5    32    30    1
     6    34    33    1
     7    34    37    1
     8    29    30    1
     9    29    26    1
    10    33    27   am
    11    37    38    1
    12    27    28    2
    13    27    26    1
    14    26    25    1
    15    42    40   ar
    16    42    45   ar
    17    38    40   ar
    18    38    39   ar
    19    40    41   ar
    20    45    46   ar
    21    25    19   am
    22    39    43   ar
    23    41    43   ar
    24    41    44   ar
    25     1     2    1
    26    46    44   ar
    27    19    20    2
    28    19    18    1
    29     4     3    2
    30    23    21    1
    31     2     3    1
    32     2     5    1
    33    21    18    1
    34    21    22    1
    35     3     9   am
    36    18    17    1
    37    17    11   am
    38     5     6    1
    39     6     8    1
    40     6     7    1
    41    22    24    1
    42     9    10    1
    43    11    12    2
    44    11    10    1
    45    10    13    1
    46    15    14   ar
    47    13    14    1
    48    14    16   ar
