@<TRIPOS>MOLECULE
2-[[2-[2-butyl-4-[(Z)-2-carboxy-3-(6-methoxy-1,3-benzodioxol-5-yl)prop-1-enyl]pyrazol-3-yl]-5-methoxyphenoxy]methyl]benzoic acid
 77 81 0 0 0
SMALL
GASTEIGER

@<TRIPOS>ATOM
      1 O           4.7493    1.6349    5.7025 O.3     1  LIG1       -0.4866
      2 O          -3.0439    0.8156   10.0275 O.3     1  LIG1       -0.4526
      3 O          -3.0682    2.7468   11.4742 O.3     1  LIG1       -0.4525
      4 O           1.4524    3.9571   10.1452 O.3     1  LIG1       -0.4947
      5 O           8.0078   -1.6534    4.7868 O.3     1  LIG1       -0.4950
      6 O           3.1009    0.0638   10.3615 O.co2   1  LIG1       -0.5449
      7 O           1.8544   -1.6544    9.5230 O.co2   1  LIG1       -0.5449
      8 O           4.6393    4.6051    4.3379 O.co2   1  LIG1       -0.5446
      9 O           6.0810    5.9881    3.2978 O.co2   1  LIG1       -0.5446
     10 N           1.5902   -0.2678    3.6572 N.ar    1  LIG1       -0.2630
     11 N           0.4108    0.2813    4.0469 N.ar    1  LIG1       -0.1785
     12 C           2.6293   -0.0418    4.5575 C.ar    1  LIG1        0.0795
     13 C           1.5027   -1.2219    2.5633 C.3     1  LIG1        0.0422
     14 C           1.7625   -2.6970    2.9333 C.3     1  LIG1       -0.0336
     15 C           1.8994    0.1043    5.7482 C.ar    1  LIG1        0.0207
     16 C           4.0981   -0.2281    4.3599 C.ar    1  LIG1        0.0425
     17 C           0.8486   -3.2879    4.0086 C.3     1  LIG1       -0.0542
     18 C           0.5908    0.4468    5.3569 C.ar    1  LIG1        0.0571
     19 C           2.2811   -0.2878    7.0698 C.2     1  LIG1       -0.0459
     20 C           1.6041    1.7522    8.4493 C.3     1  LIG1        0.0029
     21 C           5.0366    0.3891    5.2094 C.ar    1  LIG1        0.1336
     22 C           2.0454    0.3313    8.2452 C.2     1  LIG1       -0.0200
     23 C           0.3800    2.0057    9.3252 C.ar    1  LIG1        0.0023
     24 C           4.6371   -1.0834    3.3915 C.ar    1  LIG1       -0.0456
     25 C           1.3313   -4.6790    4.4103 C.3     1  LIG1       -0.0652
     26 C           6.2604   -0.2411    5.4309 C.ar    1  LIG1        0.0224
     27 C           0.3331    3.1647   10.1568 C.ar    1  LIG1        0.1273
     28 C          -0.7518    1.1697    9.2473 C.ar    1  LIG1       -0.0092
     29 C           5.9519   -1.5549    3.4649 C.ar    1  LIG1       -0.0191
     30 C          -1.8631    1.4961   10.0008 C.ar    1  LIG1        0.1667
     31 C           6.7463   -1.1887    4.5387 C.ar    1  LIG1        0.1236
     32 C          -1.8821    2.5986   10.8203 C.ar    1  LIG1        0.1697
     33 C          -0.8030    3.4471   10.9277 C.ar    1  LIG1        0.0258
     34 C           2.3654   -0.4945    9.4982 C.2     1  LIG1        0.0680
     35 C           5.8148    2.5565    6.0568 C.3     1  LIG1        0.1153
     36 C          -3.7928    1.6125   10.9634 C.3     1  LIG1        0.2332
     37 C           6.9567    2.8816    5.0685 C.ar    1  LIG1       -0.0016
     38 C           6.9150    3.8926    4.0736 C.ar    1  LIG1        0.0037
     39 C           8.1792    2.1799    5.2195 C.ar    1  LIG1       -0.0547
     40 C           1.3633    5.2444   10.7306 C.3     1  LIG1        0.0788
     41 C           8.0391    4.0511    3.2177 C.ar    1  LIG1       -0.0525
     42 C           9.2658    2.3456    4.3589 C.ar    1  LIG1       -0.0614
     43 C           8.7206   -2.1058    3.6441 C.3     1  LIG1        0.0788
     44 C           9.1898    3.2756    3.3397 C.ar    1  LIG1       -0.0611
     45 C           5.7821    4.8956    3.8939 C.2     1  LIG1        0.0720
     46 H           2.1779   -0.8756    1.7754 H       1  LIG1        0.0509
     47 H           0.4900   -1.1492    2.1436 H       1  LIG1        0.0509
     48 H           2.7877   -2.8419    3.2757 H       1  LIG1        0.0283
     49 H           1.6670   -3.2971    2.0193 H       1  LIG1        0.0283
     50 H          -0.1793   -3.3466    3.6371 H       1  LIG1        0.0263
     51 H           0.8431   -2.6600    4.9043 H       1  LIG1        0.0263
     52 H          -0.2571    0.6957    5.9805 H       1  LIG1        0.0854
     53 H           2.7210   -1.2848    7.1240 H       1  LIG1        0.0628
     54 H           1.4089    2.2443    7.4895 H       1  LIG1        0.0363
     55 H           2.4726    2.2724    8.8716 H       1  LIG1        0.0363
     56 H           4.0596   -1.4267    2.5485 H       1  LIG1        0.0626
     57 H           1.3517   -5.3552    3.5496 H       1  LIG1        0.0230
     58 H           0.6736   -5.1103    5.1707 H       1  LIG1        0.0230
     59 H           2.3432   -4.6349    4.8298 H       1  LIG1        0.0230
     60 H           6.8676    0.0484    6.2774 H       1  LIG1        0.0691
     61 H          -0.7532    0.2872    8.6161 H       1  LIG1        0.0659
     62 H           6.2934   -2.2455    2.7040 H       1  LIG1        0.0654
     63 H          -0.8629    4.2967   11.5912 H       1  LIG1        0.0692
     64 H           6.2557    2.1952    6.9965 H       1  LIG1        0.0748
     65 H           5.3332    3.4942    6.3563 H       1  LIG1        0.0748
     66 H          -4.0920    0.9798   11.8071 H       1  LIG1        0.1166
     67 H          -4.6998    1.9777   10.4663 H       1  LIG1        0.1166
     68 H           8.3069    1.4814    6.0421 H       1  LIG1        0.0622
     69 H           2.2997    5.7712   10.5228 H       1  LIG1        0.0660
     70 H           1.2551    5.1770   11.8175 H       1  LIG1        0.0660
     71 H           0.5488    5.8273   10.2873 H       1  LIG1        0.0660
     72 H           8.0057    4.8255    2.4519 H       1  LIG1        0.0624
     73 H          10.1628    1.7529    4.4988 H       1  LIG1        0.0618
     74 H           9.7658   -2.2458    3.9357 H       1  LIG1        0.0660
     75 H           8.6975   -1.3671    2.8346 H       1  LIG1        0.0660
     76 H           8.3384   -3.0738    3.3034 H       1  LIG1        0.0660
     77 H          10.0228    3.4314    2.6636 H       1  LIG1        0.0618
@<TRIPOS>BOND
     1     1    35    1
     2     1    21    1
     3     2    36    1
     4     2    30    1
     5     3    32    1
     6     3    36    1
     7     4    27    1
     8     4    40    1
     9     5    31    1
    10     5    43    1
    11     6    34   ar
    12     7    34   ar
    13     8    45   ar
    14     9    45   ar
    15    10    11   ar
    16    10    12   ar
    17    10    13    1
    18    11    18   ar
    19    12    15   ar
    20    13    14    1
    21    14    17    1
    22    15    18   ar
    23    15    19    1
    24    16    24   ar
    25    16    21   ar
    26    16    12    1
    27    17    25    1
    28    19    22    2
    29    20    22    1
    30    20    23    1
    31    21    26   ar
    32    22    34    1
    33    23    28   ar
    34    23    27   ar
    35    24    29   ar
    36    26    31   ar
    37    27    33   ar
    38    28    30   ar
    39    29    31   ar
    40    30    32   ar
    41    32    33   ar
    42    35    37    1
    43    37    39   ar
    44    37    38   ar
    45    38    41   ar
    46    38    45    1
    47    39    42   ar
    48    41    44   ar
    49    42    44   ar
    50    13    46    1
    51    13    47    1
    52    14    48    1
    53    14    49    1
    54    17    50    1
    55    17    51    1
    56    18    52    1
    57    19    53    1
    58    20    54    1
    59    20    55    1
    60    24    56    1
    61    25    57    1
    62    25    58    1
    63    25    59    1
    64    26    60    1
    65    28    61    1
    66    29    62    1
    67    33    63    1
    68    35    64    1
    69    35    65    1
    70    36    66    1
    71    36    67    1
    72    39    68    1
    73    40    69    1
    74    40    70    1
    75    40    71    1
    76    41    72    1
    77    42    73    1
    78    43    74    1
    79    43    75    1
    80    43    76    1
    81    44    77    1
@<TRIPOS>MOLECULE
2-[[2-[2-butyl-4-[(Z)-2-carboxy-3-(6-methoxy-1,3-benzodioxol-5-yl)prop-1-enyl]pyrazol-3-yl]-5-methoxyphenoxy]methyl]benzoic acid
 77 81 0 0 0
SMALL
GASTEIGER

@<TRIPOS>ATOM
      1 O           3.9734   -0.5933    2.3222 O.3     1  LIG1       -0.4866
      2 O          -4.1706    2.5014    6.1625 O.3     1  LIG1       -0.4526
      3 O          -3.8275    4.2447    7.7875 O.3     1  LIG1       -0.4525
      4 O          -0.6642    1.5272   10.2528 O.3     1  LIG1       -0.4947
      5 O           7.9520    0.6207    4.5402 O.3     1  LIG1       -0.4950
      6 O           0.6104   -1.5993   10.4425 O.co2   1  LIG1       -0.5449
      7 O           2.3499   -0.1956    9.9843 O.co2   1  LIG1       -0.5449
      8 O           2.0672    1.4335    1.1548 O.co2   1  LIG1       -0.5446
      9 O           3.2184    2.9596    2.4028 O.co2   1  LIG1       -0.5446
     10 N           1.3751   -0.6411    3.7064 N.ar    1  LIG1       -0.2630
     11 N           0.1195   -0.2307    3.9779 N.ar    1  LIG1       -0.1785
     12 C           2.2704   -0.4349    4.7834 C.ar    1  LIG1        0.0795
     13 C           1.5130   -1.4921    2.5330 C.3     1  LIG1        0.0422
     14 C           0.2201   -2.0340    1.8874 C.3     1  LIG1       -0.0336
     15 C           1.3653   -0.3512    5.8777 C.ar    1  LIG1        0.0207
     16 C           3.7873   -0.2437    4.6829 C.ar    1  LIG1        0.0425
     17 C          -0.4274   -0.9821    0.9728 C.3     1  LIG1       -0.0542
     18 C           0.1512   -0.0039    5.2741 C.ar    1  LIG1        0.0571
     19 C           1.5575   -0.4600    7.3030 C.2     1  LIG1       -0.0459
     20 C          -0.8714   -0.5604    8.2671 C.3     1  LIG1        0.0029
     21 C           4.5812   -0.2989    3.5006 C.ar    1  LIG1        0.1336
     22 C           0.6467   -0.5076    8.3141 C.2     1  LIG1       -0.0200
     23 C          -1.6550    0.7528    8.2309 C.ar    1  LIG1        0.0023
     24 C           4.4931    0.1835    5.8310 C.ar    1  LIG1       -0.0456
     25 C          -1.6848   -1.4972    0.2977 C.3     1  LIG1       -0.0652
     26 C           5.9636   -0.0097    3.5234 C.ar    1  LIG1        0.0224
     27 C          -1.5313    1.7551    9.2211 C.ar    1  LIG1        0.1273
     28 C          -2.6146    0.9409    7.2094 C.ar    1  LIG1       -0.0092
     29 C           5.8752    0.4572    5.8503 C.ar    1  LIG1       -0.0191
     30 C          -3.2852    2.1429    7.1305 C.ar    1  LIG1        0.1667
     31 C           6.6193    0.3555    4.6904 C.ar    1  LIG1        0.1236
     32 C          -3.0928    3.1339    8.0578 C.ar    1  LIG1        0.1697
     33 C          -2.2408    2.9641    9.1254 C.ar    1  LIG1        0.0258
     34 C           1.2503   -0.7733    9.7249 C.2     1  LIG1        0.0680
     35 C           4.6346   -0.6231    1.0642 C.3     1  LIG1        0.1153
     36 C          -4.3776    3.8851    6.5024 C.3     1  LIG1        0.2332
     37 C           4.9410    0.6835    0.3492 C.ar    1  LIG1       -0.0016
     38 C           4.2863    1.9062    0.5830 C.ar    1  LIG1        0.0037
     39 C           5.8967    0.6351   -0.6874 C.ar    1  LIG1       -0.0547
     40 C          -1.1839    1.8387   11.5388 C.3     1  LIG1        0.0788
     41 C           4.6604    3.0502   -0.1477 C.ar    1  LIG1       -0.0525
     42 C           6.2227    1.7712   -1.4374 C.ar    1  LIG1       -0.0614
     43 C           8.6944    0.8559    5.7282 C.3     1  LIG1        0.0788
     44 C           5.6161    2.9852   -1.1554 C.ar    1  LIG1       -0.0611
     45 C           3.1049    2.0804    1.4972 C.2     1  LIG1        0.0720
     46 H           2.1409   -2.3386    2.8326 H       1  LIG1        0.0509
     47 H           1.9908   -0.9133    1.7554 H       1  LIG1        0.0509
     48 H          -0.4894   -2.3881    2.6443 H       1  LIG1        0.0283
     49 H           0.4859   -2.9020    1.2701 H       1  LIG1        0.0283
     50 H           0.2878   -0.6823    0.1959 H       1  LIG1        0.0263
     51 H          -0.6770   -0.0783    1.5358 H       1  LIG1        0.0263
     52 H          -0.7465    0.3615    5.7190 H       1  LIG1        0.0854
     53 H           2.5821   -0.6113    7.6255 H       1  LIG1        0.0628
     54 H          -1.2778   -1.1318    9.1098 H       1  LIG1        0.0363
     55 H          -1.1558   -1.1726    7.4013 H       1  LIG1        0.0363
     56 H           3.9732    0.3987    6.7552 H       1  LIG1        0.0626
     57 H          -1.4623   -2.3506   -0.3479 H       1  LIG1        0.0230
     58 H          -2.1247   -0.7081   -0.3225 H       1  LIG1        0.0230
     59 H          -2.4313   -1.8026    1.0376 H       1  LIG1        0.0230
     60 H           6.5525   -0.0193    2.6134 H       1  LIG1        0.0691
     61 H          -2.7972    0.1780    6.4581 H       1  LIG1        0.0659
     62 H           6.3054    0.7942    6.7862 H       1  LIG1        0.0654
     63 H          -2.1044    3.7619    9.8443 H       1  LIG1        0.0692
     64 H           3.9700   -1.1866    0.3942 H       1  LIG1        0.0748
     65 H           5.5380   -1.2422    1.1436 H       1  LIG1        0.0748
     66 H          -5.4558    4.0832    6.5143 H       1  LIG1        0.1166
     67 H          -3.9174    4.5159    5.7311 H       1  LIG1        0.1166
     68 H           6.3800   -0.3087   -0.9338 H       1  LIG1        0.0622
     69 H          -0.6004    1.2893   12.2824 H       1  LIG1        0.0660
     70 H          -2.2325    1.5374   11.6445 H       1  LIG1        0.0660
     71 H          -1.0711    2.9078   11.7473 H       1  LIG1        0.0660
     72 H           4.1479    3.9902    0.0652 H       1  LIG1        0.0624
     73 H           6.9441    1.6995   -2.2454 H       1  LIG1        0.0618
     74 H           9.7255    1.0749    5.4344 H       1  LIG1        0.0660
     75 H           8.7088   -0.0391    6.3567 H       1  LIG1        0.0660
     76 H           8.3194    1.7248    6.2780 H       1  LIG1        0.0660
     77 H           5.8562    3.8769   -1.7246 H       1  LIG1        0.0618
@<TRIPOS>BOND
     1     1    35    1
     2     1    21    1
     3     2    36    1
     4     2    30    1
     5     3    32    1
     6     3    36    1
     7     4    27    1
     8     4    40    1
     9     5    31    1
    10     5    43    1
    11     6    34   ar
    12     7    34   ar
    13     8    45   ar
    14     9    45   ar
    15    10    11   ar
    16    10    12   ar
    17    10    13    1
    18    11    18   ar
    19    12    15   ar
    20    13    14    1
    21    14    17    1
    22    15    18   ar
    23    15    19    1
    24    16    24   ar
    25    16    21   ar
    26    16    12    1
    27    17    25    1
    28    19    22    2
    29    20    22    1
    30    20    23    1
    31    21    26   ar
    32    22    34    1
    33    23    28   ar
    34    23    27   ar
    35    24    29   ar
    36    26    31   ar
    37    27    33   ar
    38    28    30   ar
    39    29    31   ar
    40    30    32   ar
    41    32    33   ar
    42    35    37    1
    43    37    39   ar
    44    37    38   ar
    45    38    41   ar
    46    38    45    1
    47    39    42   ar
    48    41    44   ar
    49    42    44   ar
    50    13    46    1
    51    13    47    1
    52    14    48    1
    53    14    49    1
    54    17    50    1
    55    17    51    1
    56    18    52    1
    57    19    53    1
    58    20    54    1
    59    20    55    1
    60    24    56    1
    61    25    57    1
    62    25    58    1
    63    25    59    1
    64    26    60    1
    65    28    61    1
    66    29    62    1
    67    33    63    1
    68    35    64    1
    69    35    65    1
    70    36    66    1
    71    36    67    1
    72    39    68    1
    73    40    69    1
    74    40    70    1
    75    40    71    1
    76    41    72    1
    77    42    73    1
    78    43    74    1
    79    43    75    1
    80    43    76    1
    81    44    77    1
@<TRIPOS>MOLECULE
2-[[2-[2-butyl-4-[(Z)-2-carboxy-3-(6-methoxy-1,3-benzodioxol-5-yl)prop-1-enyl]pyrazol-3-yl]-5-methoxyphenoxy]methyl]benzoic acid
 77 81 0 0 0
SMALL
GASTEIGER

@<TRIPOS>ATOM
      1 O           4.6121    1.4829    5.5940 O.3     1  LIG1       -0.4866
      2 O           5.9489   -3.5583   10.0299 O.3     1  LIG1       -0.4526
      3 O           5.2608   -5.8057   10.5649 O.3     1  LIG1       -0.4525
      4 O           1.1336   -5.2771    8.0176 O.3     1  LIG1       -0.4947
      5 O           8.0101   -1.7419    5.0394 O.3     1  LIG1       -0.4950
      6 O           0.6929   -1.2145    9.9606 O.co2   1  LIG1       -0.5449
      7 O           2.6517   -0.0405    9.9187 O.co2   1  LIG1       -0.5449
      8 O           4.4641    4.4833    4.2403 O.co2   1  LIG1       -0.5446
      9 O           5.9262    5.9520    3.3621 O.co2   1  LIG1       -0.5446
     10 N           1.5698   -0.6454    3.5997 N.ar    1  LIG1       -0.2630
     11 N           0.3495   -0.1276    3.8766 N.ar    1  LIG1       -0.1785
     12 C           2.5409   -0.3646    4.5693 C.ar    1  LIG1        0.0795
     13 C           1.6322   -1.6260    2.5278 C.3     1  LIG1        0.0422
     14 C           0.3018   -2.2580    2.0913 C.3     1  LIG1       -0.0336
     15 C           1.7339   -0.0916    5.6780 C.ar    1  LIG1        0.0207
     16 C           4.0235   -0.5610    4.4751 C.ar    1  LIG1        0.0425
     17 C           0.4730   -3.3366    1.0145 C.3     1  LIG1       -0.0542
     18 C           0.4379    0.1407    5.1749 C.ar    1  LIG1        0.0571
     19 C           2.0188   -0.0449    7.0763 C.2     1  LIG1       -0.0459
     20 C           1.7324   -2.5532    7.5727 C.3     1  LIG1        0.0029
     21 C           4.9338    0.1907    5.2535 C.ar    1  LIG1        0.1336
     22 C           1.8877   -1.0907    7.9225 C.2     1  LIG1       -0.0200
     23 C           2.6862   -3.5009    8.3074 C.ar    1  LIG1        0.0023
     24 C           4.5951   -1.5667    3.6747 C.ar    1  LIG1       -0.0456
     25 C           1.4251   -4.4615    1.4009 C.3     1  LIG1       -0.0652
     26 C           6.1809   -0.3639    5.5511 C.ar    1  LIG1        0.0224
     27 C           2.3225   -4.8540    8.5619 C.ar    1  LIG1        0.1273
     28 C           3.9461   -3.0341    8.7429 C.ar    1  LIG1       -0.0092
     29 C           5.9342   -1.9494    3.7884 C.ar    1  LIG1       -0.0191
     30 C           4.7396   -3.8717    9.4919 C.ar    1  LIG1        0.1667
     31 C           6.7170   -1.3835    4.7754 C.ar    1  LIG1        0.1236
     32 C           4.3504   -5.1525    9.7895 C.ar    1  LIG1        0.1697
     33 C           3.1627   -5.6787    9.3279 C.ar    1  LIG1        0.0258
     34 C           1.7372   -0.7493    9.4150 C.2     1  LIG1        0.0680
     35 C           5.6403    2.4350    5.9850 C.3     1  LIG1        0.1153
     36 C           6.2135   -4.7452   10.7941 C.3     1  LIG1        0.2332
     37 C           6.7987    2.7929    5.0245 C.ar    1  LIG1       -0.0016
     38 C           6.7642    3.8266    4.0563 C.ar    1  LIG1        0.0037
     39 C           8.0341    2.1117    5.1853 C.ar    1  LIG1       -0.0547
     40 C           0.7783   -6.6388    8.2078 C.3     1  LIG1        0.0788
     41 C           7.9064    4.0289    3.2268 C.ar    1  LIG1       -0.0525
     42 C           9.1362    2.3237    4.3508 C.ar    1  LIG1       -0.0614
     43 C           8.7678   -2.0643    3.8763 C.3     1  LIG1        0.0788
     44 C           9.0678    3.2703    3.3565 C.ar    1  LIG1       -0.0611
     45 C           5.6240    4.8183    3.8800 C.2     1  LIG1        0.0720
     46 H           2.2052   -2.4559    2.9366 H       1  LIG1        0.0509
     47 H           2.1513   -1.1589    1.6860 H       1  LIG1        0.0509
     48 H          -0.3795   -1.4879    1.7097 H       1  LIG1        0.0283
     49 H          -0.1903   -2.7077    2.9645 H       1  LIG1        0.0283
     50 H           0.8236   -2.8746    0.0848 H       1  LIG1        0.0263
     51 H          -0.5112   -3.7714    0.8029 H       1  LIG1        0.0263
     52 H          -0.4456    0.4472    5.7197 H       1  LIG1        0.0854
     53 H           2.1245    0.9534    7.5034 H       1  LIG1        0.0628
     54 H           1.8856   -2.7210    6.4995 H       1  LIG1        0.0363
     55 H           0.6957   -2.8382    7.7923 H       1  LIG1        0.0363
     56 H           4.0402   -2.1047    2.9287 H       1  LIG1        0.0626
     57 H           2.4619   -4.1117    1.4380 H       1  LIG1        0.0230
     58 H           1.3815   -5.2652    0.6589 H       1  LIG1        0.0230
     59 H           1.1667   -4.8848    2.3768 H       1  LIG1        0.0230
     60 H           6.7684    0.0363    6.3630 H       1  LIG1        0.0691
     61 H           4.2700   -2.0147    8.5498 H       1  LIG1        0.0659
     62 H           6.3068   -2.7326    3.1397 H       1  LIG1        0.0654
     63 H           2.9132   -6.6984    9.5852 H       1  LIG1        0.0692
     64 H           6.0636    2.0966    6.9399 H       1  LIG1        0.0748
     65 H           5.1208    3.3575    6.2639 H       1  LIG1        0.0748
     66 H           6.2054   -4.4890   11.8608 H       1  LIG1        0.1166
     67 H           7.2115   -5.1137   10.5328 H       1  LIG1        0.1166
     68 H           8.1685    1.4067    5.9973 H       1  LIG1        0.0622
     69 H          -0.1623   -6.8192    7.6788 H       1  LIG1        0.0660
     70 H           0.6110   -6.8618    9.2670 H       1  LIG1        0.0660
     71 H           1.5304   -7.3093    7.7775 H       1  LIG1        0.0660
     72 H           7.8743    4.8236    2.4842 H       1  LIG1        0.0624
     73 H          10.0440    1.7436    4.5040 H       1  LIG1        0.0618
     74 H           9.8256   -2.0620    4.1556 H       1  LIG1        0.0660
     75 H           8.6314   -1.3219    3.0815 H       1  LIG1        0.0660
     76 H           8.5213   -3.0686    3.5183 H       1  LIG1        0.0660
     77 H           9.9118    3.4624    2.7051 H       1  LIG1        0.0618
@<TRIPOS>BOND
     1     1    35    1
     2     1    21    1
     3     2    36    1
     4     2    30    1
     5     3    32    1
     6     3    36    1
     7     4    27    1
     8     4    40    1
     9     5    31    1
    10     5    43    1
    11     6    34   ar
    12     7    34   ar
    13     8    45   ar
    14     9    45   ar
    15    10    11   ar
    16    10    12   ar
    17    10    13    1
    18    11    18   ar
    19    12    15   ar
    20    13    14    1
    21    14    17    1
    22    15    18   ar
    23    15    19    1
    24    16    24   ar
    25    16    21   ar
    26    16    12    1
    27    17    25    1
    28    19    22    2
    29    20    22    1
    30    20    23    1
    31    21    26   ar
    32    22    34    1
    33    23    28   ar
    34    23    27   ar
    35    24    29   ar
    36    26    31   ar
    37    27    33   ar
    38    28    30   ar
    39    29    31   ar
    40    30    32   ar
    41    32    33   ar
    42    35    37    1
    43    37    39   ar
    44    37    38   ar
    45    38    41   ar
    46    38    45    1
    47    39    42   ar
    48    41    44   ar
    49    42    44   ar
    50    13    46    1
    51    13    47    1
    52    14    48    1
    53    14    49    1
    54    17    50    1
    55    17    51    1
    56    18    52    1
    57    19    53    1
    58    20    54    1
    59    20    55    1
    60    24    56    1
    61    25    57    1
    62    25    58    1
    63    25    59    1
    64    26    60    1
    65    28    61    1
    66    29    62    1
    67    33    63    1
    68    35    64    1
    69    35    65    1
    70    36    66    1
    71    36    67    1
    72    39    68    1
    73    40    69    1
    74    40    70    1
    75    40    71    1
    76    41    72    1
    77    42    73    1
    78    43    74    1
    79    43    75    1
    80    43    76    1
    81    44    77    1
@<TRIPOS>MOLECULE
2-[[2-[2-butyl-4-[(Z)-2-carboxy-3-(6-methoxy-1,3-benzodioxol-5-yl)prop-1-enyl]pyrazol-3-yl]-5-methoxyphenoxy]methyl]benzoic acid
 77 81 0 0 0
SMALL
GASTEIGER

@<TRIPOS>ATOM
      1 O           4.5946    1.4532    4.9489 O.3     1  LIG1       -0.4866
      2 O           1.6751   -6.0525    9.2937 O.3     1  LIG1       -0.4526
      3 O          -0.4943   -7.0040    9.7445 O.3     1  LIG1       -0.4525
      4 O          -2.7203   -2.9172    8.2862 O.3     1  LIG1       -0.4947
      5 O           7.6507   -2.2750    4.5747 O.3     1  LIG1       -0.4950
      6 O           0.5742   -0.4677   10.4261 O.co2   1  LIG1       -0.5449
      7 O           2.6726   -1.1560    9.8364 O.co2   1  LIG1       -0.5449
      8 O           4.6173    4.9346    4.5099 O.co2   1  LIG1       -0.5446
      9 O           5.0799    4.6480    2.3096 O.co2   1  LIG1       -0.5446
     10 N           1.5398   -0.2706    3.6578 N.ar    1  LIG1       -0.2630
     11 N           0.2933    0.1804    3.9301 N.ar    1  LIG1       -0.1785
     12 C           2.3523   -0.3679    4.7762 C.ar    1  LIG1        0.0795
     13 C           1.8528   -0.6944    2.3003 C.3     1  LIG1        0.0422
     14 C           0.6715   -1.3042    1.5215 C.3     1  LIG1       -0.0336
     15 C           1.4941   -0.1494    5.8422 C.ar    1  LIG1        0.0207
     16 C           3.7567   -0.7943    4.7522 C.ar    1  LIG1        0.0425
     17 C          -0.1818   -0.2874    0.7554 C.3     1  LIG1       -0.0542
     18 C           0.2810    0.2663    5.2600 C.ar    1  LIG1        0.0571
     19 C           1.7876   -0.2951    7.2313 C.2     1  LIG1       -0.0459
     20 C          -0.2727   -1.6648    7.9004 C.3     1  LIG1        0.0029
     21 C           4.8386    0.1012    4.8910 C.ar    1  LIG1        0.1336
     22 C           1.0183   -0.9246    8.1464 C.2     1  LIG1       -0.0200
     23 C          -0.3582   -3.1111    8.3838 C.ar    1  LIG1        0.0023
     24 C           4.0143   -2.1736    4.6074 C.ar    1  LIG1       -0.0456
     25 C           0.5487    0.3169   -0.4348 C.3     1  LIG1       -0.0652
     26 C           6.1352   -0.4183    4.8498 C.ar    1  LIG1        0.0224
     27 C          -1.6350   -3.7080    8.5942 C.ar    1  LIG1        0.1273
     28 C           0.8030   -3.8859    8.5775 C.ar    1  LIG1       -0.0092
     29 C           5.3186   -2.6627    4.5419 C.ar    1  LIG1       -0.0191
     30 C           0.6630   -5.1778    9.0349 C.ar    1  LIG1        0.1667
     31 C           6.3772   -1.7750    4.6353 C.ar    1  LIG1        0.1236
     32 C          -0.5723   -5.7235    9.2813 C.ar    1  LIG1        0.1697
     33 C          -1.7384   -5.0213    9.0631 C.ar    1  LIG1        0.0258
     34 C           1.4700   -0.8362    9.6133 C.2     1  LIG1        0.0680
     35 C           5.4711    2.2909    5.7390 C.3     1  LIG1        0.1153
     36 C           0.9372   -7.1654    9.8235 C.3     1  LIG1        0.2332
     37 C           6.6862    2.8396    4.9915 C.ar    1  LIG1       -0.0016
     38 C           6.5793    3.7360    3.9072 C.ar    1  LIG1        0.0037
     39 C           7.9771    2.4023    5.3685 C.ar    1  LIG1       -0.0547
     40 C          -4.0136   -3.4559    8.5185 C.3     1  LIG1        0.0788
     41 C           7.7344    4.0309    3.1485 C.ar    1  LIG1       -0.0525
     42 C           9.1088    2.7135    4.6106 C.ar    1  LIG1       -0.0614
     43 C           8.4042   -1.7007    3.5049 C.3     1  LIG1        0.0788
     44 C           8.9824    3.5077    3.4799 C.ar    1  LIG1       -0.0611
     45 C           5.3032    4.4664    3.5503 C.2     1  LIG1        0.0720
     46 H           2.6141   -1.4763    2.3766 H       1  LIG1        0.0509
     47 H           2.3028    0.1613    1.7917 H       1  LIG1        0.0509
     48 H           0.0236   -1.8737    2.2010 H       1  LIG1        0.0283
     49 H           1.0641   -2.0316    0.7995 H       1  LIG1        0.0283
     50 H          -0.5285    0.5134    1.4161 H       1  LIG1        0.0263
     51 H          -1.0789   -0.7979    0.3836 H       1  LIG1        0.0263
     52 H          -0.6215    0.5924    5.7591 H       1  LIG1        0.0854
     53 H           2.7198    0.1574    7.5721 H       1  LIG1        0.0628
     54 H          -0.5046   -1.7089    6.8316 H       1  LIG1        0.0363
     55 H          -1.0736   -1.0793    8.3703 H       1  LIG1        0.0363
     56 H           3.1831   -2.8719    4.5393 H       1  LIG1        0.0626
     57 H           1.4028    0.9217   -0.1183 H       1  LIG1        0.0230
     58 H          -0.1265    0.9653   -1.0016 H       1  LIG1        0.0230
     59 H           0.9113   -0.4654   -1.1094 H       1  LIG1        0.0230
     60 H           6.9886    0.2252    4.9527 H       1  LIG1        0.0691
     61 H           1.7951   -3.4761    8.4050 H       1  LIG1        0.0659
     62 H           5.5012   -3.7237    4.4139 H       1  LIG1        0.0654
     63 H          -2.6845   -5.5062    9.2621 H       1  LIG1        0.0692
     64 H           5.7863    1.7460    6.6400 H       1  LIG1        0.0748
     65 H           4.8735    3.1241    6.1221 H       1  LIG1        0.0748
     66 H           1.2171   -7.3073   10.8745 H       1  LIG1        0.1166
     67 H           1.2147   -8.0666    9.2653 H       1  LIG1        0.1166
     68 H           8.0965    1.7664    6.2439 H       1  LIG1        0.0622
     69 H          -4.7456   -2.6963    8.2283 H       1  LIG1        0.0660
     70 H          -4.1655   -3.6784    9.5788 H       1  LIG1        0.0660
     71 H          -4.1902   -4.3389    7.8968 H       1  LIG1        0.0660
     72 H           7.6361    4.6971    2.2914 H       1  LIG1        0.0624
     73 H          10.0793    2.3222    4.8976 H       1  LIG1        0.0618
     74 H           9.4657   -1.8329    3.7349 H       1  LIG1        0.0660
     75 H           8.2327   -0.6301    3.3528 H       1  LIG1        0.0660
     76 H           8.1839   -2.2400    2.5783 H       1  LIG1        0.0660
     77 H           9.8467    3.7460    2.8693 H       1  LIG1        0.0618
@<TRIPOS>BOND
     1     1    35    1
     2     1    21    1
     3     2    36    1
     4     2    30    1
     5     3    32    1
     6     3    36    1
     7     4    27    1
     8     4    40    1
     9     5    31    1
    10     5    43    1
    11     6    34   ar
    12     7    34   ar
    13     8    45   ar
    14     9    45   ar
    15    10    11   ar
    16    10    12   ar
    17    10    13    1
    18    11    18   ar
    19    12    15   ar
    20    13    14    1
    21    14    17    1
    22    15    18   ar
    23    15    19    1
    24    16    24   ar
    25    16    21   ar
    26    16    12    1
    27    17    25    1
    28    19    22    2
    29    20    22    1
    30    20    23    1
    31    21    26   ar
    32    22    34    1
    33    23    28   ar
    34    23    27   ar
    35    24    29   ar
    36    26    31   ar
    37    27    33   ar
    38    28    30   ar
    39    29    31   ar
    40    30    32   ar
    41    32    33   ar
    42    35    37    1
    43    37    39   ar
    44    37    38   ar
    45    38    41   ar
    46    38    45    1
    47    39    42   ar
    48    41    44   ar
    49    42    44   ar
    50    13    46    1
    51    13    47    1
    52    14    48    1
    53    14    49    1
    54    17    50    1
    55    17    51    1
    56    18    52    1
    57    19    53    1
    58    20    54    1
    59    20    55    1
    60    24    56    1
    61    25    57    1
    62    25    58    1
    63    25    59    1
    64    26    60    1
    65    28    61    1
    66    29    62    1
    67    33    63    1
    68    35    64    1
    69    35    65    1
    70    36    66    1
    71    36    67    1
    72    39    68    1
    73    40    69    1
    74    40    70    1
    75    40    71    1
    76    41    72    1
    77    42    73    1
    78    43    74    1
    79    43    75    1
    80    43    76    1
    81    44    77    1
@<TRIPOS>MOLECULE
2-[[2-[2-butyl-4-[(Z)-2-carboxy-3-(6-methoxy-1,3-benzodioxol-5-yl)prop-1-enyl]pyrazol-3-yl]-5-methoxyphenoxy]methyl]benzoic acid
 77 81 0 0 0
SMALL
GASTEIGER

@<TRIPOS>ATOM
      1 O           4.1875    0.9008    6.4710 O.3     1  LIG1       -0.4866
      2 O           1.3920   -6.1688    9.3594 O.3     1  LIG1       -0.4526
      3 O          -0.7662   -7.1413    9.8145 O.3     1  LIG1       -0.4525
      4 O          -3.1821   -3.3284    8.4049 O.3     1  LIG1       -0.4947
      5 O           7.8356   -0.4932    3.9079 O.3     1  LIG1       -0.4950
      6 O           0.5228   -0.7216   10.4527 O.co2   1  LIG1       -0.5449
      7 O           2.5883   -1.4260    9.7724 O.co2   1  LIG1       -0.5449
      8 O           3.4689    4.8336    5.1619 O.co2   1  LIG1       -0.5446
      9 O           1.5863    5.8681    5.8521 O.co2   1  LIG1       -0.5446
     10 N           1.2070   -0.6985    3.6906 N.ar    1  LIG1       -0.2630
     11 N          -0.0019   -0.1643    3.9757 N.ar    1  LIG1       -0.1785
     12 C           2.1664   -0.4169    4.6707 C.ar    1  LIG1        0.0795
     13 C           1.1888   -1.8486    2.7936 C.3     1  LIG1        0.0422
     14 C           0.8133   -1.4813    1.3597 C.3     1  LIG1       -0.0336
     15 C           1.3400   -0.4020    5.8041 C.ar    1  LIG1        0.0207
     16 C           3.6410   -0.3390    4.4332 C.ar    1  LIG1        0.0425
     17 C           1.1115   -2.5907    0.3483 C.3     1  LIG1       -0.0542
     18 C           0.0720   -0.0258    5.2989 C.ar    1  LIG1        0.0571
     19 C           1.6559   -0.5962    7.1852 C.2     1  LIG1       -0.0459
     20 C          -0.4857   -1.7821    7.9788 C.3     1  LIG1        0.0029
     21 C           4.5605    0.2284    5.3380 C.ar    1  LIG1        0.1336
     22 C           0.8728   -1.1486    8.1387 C.2     1  LIG1       -0.0200
     23 C          -0.6651   -3.2136    8.4767 C.ar    1  LIG1        0.0023
     24 C           4.2049   -0.7535    3.2108 C.ar    1  LIG1       -0.0456
     25 C           0.5471   -3.9505    0.7316 C.3     1  LIG1       -0.0652
     26 C           5.9511    0.1397    5.1437 C.ar    1  LIG1        0.0224
     27 C          -1.9335   -3.8236    8.6866 C.ar    1  LIG1        0.1273
     28 C           0.4941   -4.0100    8.6664 C.ar    1  LIG1       -0.0092
     29 C           5.5910   -0.8122    2.9905 C.ar    1  LIG1       -0.0191
     30 C           0.3702   -5.3042    9.1197 C.ar    1  LIG1        0.1667
     31 C           6.4726   -0.4235    3.9874 C.ar    1  LIG1        0.1236
     32 C          -0.8547   -5.8586    9.3680 C.ar    1  LIG1        0.1697
     33 C          -2.0147   -5.1551    9.1426 C.ar    1  LIG1        0.0258
     34 C           1.3868   -1.0735    9.5974 C.2     1  LIG1        0.0680
     35 C           3.8723    2.2850    6.1938 C.3     1  LIG1        0.1153
     36 C           0.6674   -7.2925    9.8847 C.3     1  LIG1        0.2332
     37 C           3.1945    2.9371    7.3917 C.ar    1  LIG1       -0.0016
     38 C           2.5189    4.1785    7.2663 C.ar    1  LIG1        0.0037
     39 C           3.2076    2.2950    8.6488 C.ar    1  LIG1       -0.0547
     40 C          -3.4329   -1.9460    8.5901 C.3     1  LIG1        0.0788
     41 C           1.8146    4.6737    8.3857 C.ar    1  LIG1       -0.0525
     42 C           2.5047    2.8071    9.7380 C.ar    1  LIG1       -0.0614
     43 C           8.3440   -1.4703    3.0075 C.3     1  LIG1        0.0788
     44 C           1.7977    3.9930    9.6038 C.ar    1  LIG1       -0.0611
     45 C           2.5171    5.0101    5.9903 C.2     1  LIG1        0.0720
     46 H           0.4464   -2.5438    3.2077 H       1  LIG1        0.0509
     47 H           2.1447   -2.3721    2.8526 H       1  LIG1        0.0509
     48 H           1.3440   -0.5734    1.0480 H       1  LIG1        0.0283
     49 H          -0.2569   -1.2394    1.3201 H       1  LIG1        0.0283
     50 H           2.1959   -2.6795    0.2149 H       1  LIG1        0.0263
     51 H           0.6969   -2.2954   -0.6229 H       1  LIG1        0.0263
     52 H          -0.8069    0.2833    5.8485 H       1  LIG1        0.0854
     53 H           2.6338   -0.2752    7.5189 H       1  LIG1        0.0628
     54 H          -0.7971   -1.8040    6.9315 H       1  LIG1        0.0363
     55 H          -1.1605   -1.1118    8.5113 H       1  LIG1        0.0363
     56 H           3.5863   -1.0230    2.3654 H       1  LIG1        0.0626
     57 H           1.0587   -4.3593    1.6088 H       1  LIG1        0.0230
     58 H           0.6873   -4.6607   -0.0895 H       1  LIG1        0.0230
     59 H          -0.5230   -3.8891    0.9514 H       1  LIG1        0.0230
     60 H           6.6175    0.5272    5.9100 H       1  LIG1        0.0691
     61 H           1.4915   -3.6184    8.4794 H       1  LIG1        0.0659
     62 H           5.9424   -1.1532    2.0233 H       1  LIG1        0.0654
     63 H          -2.9790   -5.6197    9.3122 H       1  LIG1        0.0692
     64 H           3.1962    2.3327    5.3328 H       1  LIG1        0.0748
     65 H           4.8095    2.8133    5.9846 H       1  LIG1        0.0748
     66 H           0.9558   -7.4397   10.9327 H       1  LIG1        0.1166
     67 H           0.9497   -8.1865    9.3173 H       1  LIG1        0.1166
     68 H           3.7318    1.3501    8.7858 H       1  LIG1        0.0622
     69 H          -4.5163   -1.8188    8.6855 H       1  LIG1        0.0660
     70 H          -3.1318   -1.3822    7.7027 H       1  LIG1        0.0660
     71 H          -2.9820   -1.5606    9.5093 H       1  LIG1        0.0660
     72 H           1.2622    5.6065    8.2886 H       1  LIG1        0.0624
     73 H           2.4857    2.2492   10.6712 H       1  LIG1        0.0618
     74 H           9.4070   -1.6090    3.2270 H       1  LIG1        0.0660
     75 H           8.2594   -1.1239    1.9725 H       1  LIG1        0.0660
     76 H           7.8508   -2.4406    3.1369 H       1  LIG1        0.0660
     77 H           1.2260    4.3828   10.4388 H       1  LIG1        0.0618
@<TRIPOS>BOND
     1     1    35    1
     2     1    21    1
     3     2    36    1
     4     2    30    1
     5     3    32    1
     6     3    36    1
     7     4    27    1
     8     4    40    1
     9     5    31    1
    10     5    43    1
    11     6    34   ar
    12     7    34   ar
    13     8    45   ar
    14     9    45   ar
    15    10    11   ar
    16    10    12   ar
    17    10    13    1
    18    11    18   ar
    19    12    15   ar
    20    13    14    1
    21    14    17    1
    22    15    18   ar
    23    15    19    1
    24    16    24   ar
    25    16    21   ar
    26    16    12    1
    27    17    25    1
    28    19    22    2
    29    20    22    1
    30    20    23    1
    31    21    26   ar
    32    22    34    1
    33    23    28   ar
    34    23    27   ar
    35    24    29   ar
    36    26    31   ar
    37    27    33   ar
    38    28    30   ar
    39    29    31   ar
    40    30    32   ar
    41    32    33   ar
    42    35    37    1
    43    37    39   ar
    44    37    38   ar
    45    38    41   ar
    46    38    45    1
    47    39    42   ar
    48    41    44   ar
    49    42    44   ar
    50    13    46    1
    51    13    47    1
    52    14    48    1
    53    14    49    1
    54    17    50    1
    55    17    51    1
    56    18    52    1
    57    19    53    1
    58    20    54    1
    59    20    55    1
    60    24    56    1
    61    25    57    1
    62    25    58    1
    63    25    59    1
    64    26    60    1
    65    28    61    1
    66    29    62    1
    67    33    63    1
    68    35    64    1
    69    35    65    1
    70    36    66    1
    71    36    67    1
    72    39    68    1
    73    40    69    1
    74    40    70    1
    75    40    71    1
    76    41    72    1
    77    42    73    1
    78    43    74    1
    79    43    75    1
    80    43    76    1
    81    44    77    1
@<TRIPOS>MOLECULE
2-[[2-[2-butyl-4-[(Z)-2-carboxy-3-(6-methoxy-1,3-benzodioxol-5-yl)prop-1-enyl]pyrazol-3-yl]-5-methoxyphenoxy]methyl]benzoic acid
 77 81 0 0 0
SMALL
GASTEIGER

@<TRIPOS>ATOM
      1 O           4.0338   -0.0828    7.0178 O.3     1  LIG1       -0.4866
      2 O          -4.5995   -1.2517   11.0828 O.3     1  LIG1       -0.4526
      3 O          -4.2100   -3.3416   12.2260 O.3     1  LIG1       -0.4525
      4 O          -0.5425   -4.4644    9.3003 O.3     1  LIG1       -0.4947
      5 O           7.5758    0.0182    3.8926 O.3     1  LIG1       -0.4950
      6 O           0.1428    0.1417   10.1652 O.co2   1  LIG1       -0.5449
      7 O           1.5358   -1.6741   10.0728 O.co2   1  LIG1       -0.5449
      8 O           7.4108    2.1292    8.0777 O.co2   1  LIG1       -0.5446
      9 O           7.7990    3.5297    6.3509 O.co2   1  LIG1       -0.5446
     10 N           1.2123   -0.8637    3.7517 N.ar    1  LIG1       -0.2630
     11 N          -0.0948   -0.5415    3.8180 N.ar    1  LIG1       -0.1785
     12 C           1.9620   -0.3720    4.8281 C.ar    1  LIG1        0.0795
     13 C           1.6321   -1.7673    2.6901 C.3     1  LIG1        0.0422
     14 C           0.8636   -3.0947    2.6733 C.3     1  LIG1       -0.0336
     15 C           0.9811   -0.4214    5.8335 C.ar    1  LIG1        0.0207
     16 C           3.4329   -0.1074    4.6906 C.ar    1  LIG1        0.0425
     17 C           1.1810   -3.9664    3.8914 C.3     1  LIG1       -0.0542
     18 C          -0.2455   -0.3446    5.1257 C.ar    1  LIG1        0.0571
     19 C           1.0858   -0.4271    7.2601 C.2     1  LIG1       -0.0459
     20 C          -0.8727   -1.9769    7.8780 C.3     1  LIG1        0.0029
     21 C           4.4061   -0.0950    5.7025 C.ar    1  LIG1        0.1336
     22 C           0.2916   -1.0670    8.1519 C.2     1  LIG1       -0.0200
     23 C          -1.7386   -2.3967    9.0542 C.ar    1  LIG1        0.0023
     24 C           3.9163    0.2056    3.3946 C.ar    1  LIG1       -0.0456
     25 C           0.3682   -5.2506    3.8831 C.3     1  LIG1       -0.0652
     26 C           5.7800   -0.0819    5.3773 C.ar    1  LIG1        0.0224
     27 C          -1.5217   -3.6122    9.7439 C.ar    1  LIG1        0.1273
     28 C          -2.7723   -1.5431    9.4896 C.ar    1  LIG1       -0.0092
     29 C           5.2797    0.2812    3.0770 C.ar    1  LIG1       -0.0191
     30 C          -3.5497   -1.9417   10.5573 C.ar    1  LIG1        0.1667
     31 C           6.2228    0.0788    4.0680 C.ar    1  LIG1        0.1236
     32 C          -3.3315   -3.1342   11.2064 C.ar    1  LIG1        0.1697
     33 C          -2.3292   -3.9953   10.8226 C.ar    1  LIG1        0.0258
     34 C           0.7006   -0.8483    9.6088 C.2     1  LIG1        0.0680
     35 C           4.7130    0.9049    7.8424 C.3     1  LIG1        0.1153
     36 C          -4.9602   -2.1115   12.1792 C.3     1  LIG1        0.2332
     37 C           4.4990    2.3514    7.4044 C.ar    1  LIG1       -0.0016
     38 C           5.5439    3.2484    7.0718 C.ar    1  LIG1        0.0037
     39 C           3.1671    2.8174    7.3286 C.ar    1  LIG1       -0.0547
     40 C           0.4850   -4.6208   10.2835 C.3     1  LIG1        0.0788
     41 C           5.1982    4.5515    6.6392 C.ar    1  LIG1       -0.0525
     42 C           2.8546    4.1074    6.9013 C.ar    1  LIG1       -0.0614
     43 C           8.0820    0.4787    2.6497 C.3     1  LIG1        0.0788
     44 C           3.8734    4.9771    6.5500 C.ar    1  LIG1       -0.0611
     45 C           7.0260    2.9245    7.1674 C.2     1  LIG1        0.0720
     46 H           2.6975   -1.9846    2.7954 H       1  LIG1        0.0509
     47 H           1.4782   -1.2296    1.7475 H       1  LIG1        0.0509
     48 H           1.1380   -3.6418    1.7629 H       1  LIG1        0.0283
     49 H          -0.2162   -2.9124    2.6165 H       1  LIG1        0.0283
     50 H           0.9679   -3.4255    4.8193 H       1  LIG1        0.0263
     51 H           2.2490   -4.2136    3.8991 H       1  LIG1        0.0263
     52 H          -1.2389   -0.1793    5.5160 H       1  LIG1        0.0854
     53 H           1.9117    0.1224    7.6890 H       1  LIG1        0.0628
     54 H          -0.5114   -2.8724    7.3574 H       1  LIG1        0.0363
     55 H          -1.5586   -1.4951    7.1735 H       1  LIG1        0.0363
     56 H           3.2179    0.3957    2.5829 H       1  LIG1        0.0626
     57 H          -0.7039   -5.0333    3.9281 H       1  LIG1        0.0230
     58 H           0.6256   -5.8661    4.7507 H       1  LIG1        0.0230
     59 H           0.5642   -5.8354    2.9791 H       1  LIG1        0.0230
     60 H           6.5313   -0.1660    6.1603 H       1  LIG1        0.0691
     61 H          -2.9373   -0.5823    9.0132 H       1  LIG1        0.0659
     62 H           5.5616    0.4814    2.0505 H       1  LIG1        0.0654
     63 H          -2.1705   -4.9326   11.3380 H       1  LIG1        0.0692
     64 H           5.7509    0.6053    7.9721 H       1  LIG1        0.0748
     65 H           4.2727    0.8078    8.8435 H       1  LIG1        0.0748
     66 H          -6.0240   -2.3608   12.0909 H       1  LIG1        0.1166
     67 H          -4.8079   -1.5690   13.1199 H       1  LIG1        0.1166
     68 H           2.3485    2.1635    7.6119 H       1  LIG1        0.0622
     69 H           1.4471   -4.6775    9.7662 H       1  LIG1        0.0660
     70 H           0.3249   -5.5665   10.8115 H       1  LIG1        0.0660
     71 H           0.5264   -3.8068   11.0155 H       1  LIG1        0.0660
     72 H           5.9985    5.2426    6.3767 H       1  LIG1        0.0624
     73 H           1.8159    4.4176    6.8498 H       1  LIG1        0.0618
     74 H           9.1751    0.4672    2.7071 H       1  LIG1        0.0660
     75 H           7.7681    1.5071    2.4416 H       1  LIG1        0.0660
     76 H           7.7890   -0.1941    1.8363 H       1  LIG1        0.0660
     77 H           3.6473    5.9841    6.2183 H       1  LIG1        0.0618
@<TRIPOS>BOND
     1     1    35    1
     2     1    21    1
     3     2    36    1
     4     2    30    1
     5     3    32    1
     6     3    36    1
     7     4    27    1
     8     4    40    1
     9     5    31    1
    10     5    43    1
    11     6    34   ar
    12     7    34   ar
    13     8    45   ar
    14     9    45   ar
    15    10    11   ar
    16    10    12   ar
    17    10    13    1
    18    11    18   ar
    19    12    15   ar
    20    13    14    1
    21    14    17    1
    22    15    18   ar
    23    15    19    1
    24    16    24   ar
    25    16    21   ar
    26    16    12    1
    27    17    25    1
    28    19    22    2
    29    20    22    1
    30    20    23    1
    31    21    26   ar
    32    22    34    1
    33    23    28   ar
    34    23    27   ar
    35    24    29   ar
    36    26    31   ar
    37    27    33   ar
    38    28    30   ar
    39    29    31   ar
    40    30    32   ar
    41    32    33   ar
    42    35    37    1
    43    37    39   ar
    44    37    38   ar
    45    38    41   ar
    46    38    45    1
    47    39    42   ar
    48    41    44   ar
    49    42    44   ar
    50    13    46    1
    51    13    47    1
    52    14    48    1
    53    14    49    1
    54    17    50    1
    55    17    51    1
    56    18    52    1
    57    19    53    1
    58    20    54    1
    59    20    55    1
    60    24    56    1
    61    25    57    1
    62    25    58    1
    63    25    59    1
    64    26    60    1
    65    28    61    1
    66    29    62    1
    67    33    63    1
    68    35    64    1
    69    35    65    1
    70    36    66    1
    71    36    67    1
    72    39    68    1
    73    40    69    1
    74    40    70    1
    75    40    71    1
    76    41    72    1
    77    42    73    1
    78    43    74    1
    79    43    75    1
    80    43    76    1
    81    44    77    1
@<TRIPOS>MOLECULE
2-[[2-[2-butyl-4-[(Z)-2-carboxy-3-(6-methoxy-1,3-benzodioxol-5-yl)prop-1-enyl]pyrazol-3-yl]-5-methoxyphenoxy]methyl]benzoic acid
 77 81 0 0 0
SMALL
GASTEIGER

@<TRIPOS>ATOM
      1 O           3.7683    1.8076    5.0862 O.3     1  LIG1       -0.4866
      2 O          -1.0697   -5.1406   11.8249 O.3     1  LIG1       -0.4526
      3 O          -0.9296   -7.0677   10.3863 O.3     1  LIG1       -0.4525
      4 O          -0.9458   -4.2467    6.4042 O.3     1  LIG1       -0.4947
      5 O           7.6277   -0.6889    4.1516 O.3     1  LIG1       -0.4950
      6 O           0.1854   -0.4346   10.3643 O.co2   1  LIG1       -0.5449
      7 O           1.9849   -1.7940    9.9511 O.co2   1  LIG1       -0.5449
      8 O           6.1751    2.1884    7.4514 O.co2   1  LIG1       -0.5446
      9 O           6.2555    3.3126    9.4093 O.co2   1  LIG1       -0.5446
     10 N           1.2923   -0.5883    3.6800 N.ar    1  LIG1       -0.2630
     11 N          -0.0224   -0.3495    3.8690 N.ar    1  LIG1       -0.1785
     12 C           2.0297   -0.5883    4.8538 C.ar    1  LIG1        0.0795
     13 C           1.7826   -0.9941    2.3691 C.3     1  LIG1        0.0422
     14 C           0.7287   -1.1220    1.2578 C.3     1  LIG1       -0.0336
     15 C           1.0727   -0.6507    5.8580 C.ar    1  LIG1        0.0207
     16 C           3.4971   -0.6209    4.8560 C.ar    1  LIG1        0.0425
     17 C           1.0490   -2.2191    0.2378 C.3     1  LIG1       -0.0542
     18 C          -0.1467   -0.3935    5.1966 C.ar    1  LIG1        0.0571
     19 C           1.2999   -0.8048    7.2618 C.2     1  LIG1       -0.0459
     20 C          -0.8974   -1.9320    8.0536 C.3     1  LIG1        0.0029
     21 C           4.2843    0.5453    4.8817 C.ar    1  LIG1        0.1336
     22 C           0.4645   -1.3061    8.1945 C.2     1  LIG1       -0.0200
     23 C          -0.9923   -3.3532    8.6005 C.ar    1  LIG1        0.0023
     24 C           4.1428   -1.8549    4.6937 C.ar    1  LIG1       -0.0456
     25 C           2.3875   -2.0510   -0.4592 C.3     1  LIG1       -0.0652
     26 C           5.6631    0.4725    4.6447 C.ar    1  LIG1        0.0224
     27 C          -0.9615   -4.4934    7.7539 C.ar    1  LIG1        0.1273
     28 C          -1.0707   -3.5274    9.9992 C.ar    1  LIG1       -0.0092
     29 C           5.5248   -1.9234    4.4735 C.ar    1  LIG1       -0.0191
     30 C          -1.0450   -4.8031   10.5080 C.ar    1  LIG1        0.1667
     31 C           6.2877   -0.7564    4.4237 C.ar    1  LIG1        0.1236
     32 C          -0.9731   -5.8988    9.6859 C.ar    1  LIG1        0.1697
     33 C          -0.9468   -5.7815    8.3113 C.ar    1  LIG1        0.0258
     34 C           0.9465   -1.1448    9.6439 C.2     1  LIG1        0.0680
     35 C           3.4265    1.9673    6.4740 C.3     1  LIG1        0.1153
     36 C          -0.8424   -6.5557   11.7336 C.3     1  LIG1        0.2332
     37 C           3.5221    3.4053    6.9551 C.ar    1  LIG1       -0.0016
     38 C           4.4981    3.8425    7.8833 C.ar    1  LIG1        0.0037
     39 C           2.4987    4.2959    6.5637 C.ar    1  LIG1       -0.0547
     40 C          -1.1422   -5.3521    5.5367 C.3     1  LIG1        0.0788
     41 C           4.3388    5.1184    8.4652 C.ar    1  LIG1       -0.0525
     42 C           2.3872    5.5657    7.1313 C.ar    1  LIG1       -0.0614
     43 C           8.3358   -1.9175    4.1095 C.3     1  LIG1        0.0788
     44 C           3.2930    5.9667    8.1043 C.ar    1  LIG1       -0.0611
     45 C           5.7199    3.0277    8.2886 C.2     1  LIG1        0.0720
     46 H           2.2567   -1.9698    2.5272 H       1  LIG1        0.0509
     47 H           2.5549   -0.2743    2.0760 H       1  LIG1        0.0509
     48 H           0.6261   -0.1563    0.7481 H       1  LIG1        0.0283
     49 H          -0.2587   -1.3617    1.6678 H       1  LIG1        0.0283
     50 H           0.2546   -2.2338   -0.5181 H       1  LIG1        0.0263
     51 H           1.0238   -3.1962    0.7357 H       1  LIG1        0.0263
     52 H          -1.1242   -0.2386    5.6301 H       1  LIG1        0.0854
     53 H           2.2714   -0.4588    7.6237 H       1  LIG1        0.0628
     54 H          -1.2304   -1.9434    7.0139 H       1  LIG1        0.0363
     55 H          -1.6413   -1.3110    8.5696 H       1  LIG1        0.0363
     56 H           3.5618   -2.7735    4.7169 H       1  LIG1        0.0626
     57 H           2.4543   -1.0773   -0.9534 H       1  LIG1        0.0230
     58 H           2.5104   -2.8282   -1.2207 H       1  LIG1        0.0230
     59 H           3.2198   -2.1430    0.2442 H       1  LIG1        0.0230
     60 H           6.2537    1.3858    4.6798 H       1  LIG1        0.0691
     61 H          -1.0912   -2.6729   10.6709 H       1  LIG1        0.0659
     62 H           5.9691   -2.9021    4.3366 H       1  LIG1        0.0654
     63 H          -0.8891   -6.6793    7.7125 H       1  LIG1        0.0692
     64 H           3.9666    1.2844    7.1380 H       1  LIG1        0.0748
     65 H           2.3683    1.7033    6.5716 H       1  LIG1        0.0748
     66 H          -1.5893   -7.0688   12.3490 H       1  LIG1        0.1166
     67 H           0.1539   -6.7828   12.1339 H       1  LIG1        0.1166
     68 H           1.7551    3.9682    5.8405 H       1  LIG1        0.0622
     69 H          -1.2149   -4.9682    4.5151 H       1  LIG1        0.0660
     70 H          -2.0795   -5.8727    5.7606 H       1  LIG1        0.0660
     71 H          -0.2906   -6.0387    5.5742 H       1  LIG1        0.0660
     72 H           5.0515    5.4361    9.2257 H       1  LIG1        0.0624
     73 H           1.5744    6.2216    6.8389 H       1  LIG1        0.0618
     74 H           9.3982   -1.6883    3.9791 H       1  LIG1        0.0660
     75 H           8.0218   -2.5199    3.2503 H       1  LIG1        0.0660
     76 H           8.2288   -2.4770    5.0445 H       1  LIG1        0.0660
     77 H           3.1957    6.9325    8.5882 H       1  LIG1        0.0618
@<TRIPOS>BOND
     1     1    35    1
     2     1    21    1
     3     2    36    1
     4     2    30    1
     5     3    32    1
     6     3    36    1
     7     4    27    1
     8     4    40    1
     9     5    31    1
    10     5    43    1
    11     6    34   ar
    12     7    34   ar
    13     8    45   ar
    14     9    45   ar
    15    10    11   ar
    16    10    12   ar
    17    10    13    1
    18    11    18   ar
    19    12    15   ar
    20    13    14    1
    21    14    17    1
    22    15    18   ar
    23    15    19    1
    24    16    24   ar
    25    16    21   ar
    26    16    12    1
    27    17    25    1
    28    19    22    2
    29    20    22    1
    30    20    23    1
    31    21    26   ar
    32    22    34    1
    33    23    28   ar
    34    23    27   ar
    35    24    29   ar
    36    26    31   ar
    37    27    33   ar
    38    28    30   ar
    39    29    31   ar
    40    30    32   ar
    41    32    33   ar
    42    35    37    1
    43    37    39   ar
    44    37    38   ar
    45    38    41   ar
    46    38    45    1
    47    39    42   ar
    48    41    44   ar
    49    42    44   ar
    50    13    46    1
    51    13    47    1
    52    14    48    1
    53    14    49    1
    54    17    50    1
    55    17    51    1
    56    18    52    1
    57    19    53    1
    58    20    54    1
    59    20    55    1
    60    24    56    1
    61    25    57    1
    62    25    58    1
    63    25    59    1
    64    26    60    1
    65    28    61    1
    66    29    62    1
    67    33    63    1
    68    35    64    1
    69    35    65    1
    70    36    66    1
    71    36    67    1
    72    39    68    1
    73    40    69    1
    74    40    70    1
    75    40    71    1
    76    41    72    1
    77    42    73    1
    78    43    74    1
    79    43    75    1
    80    43    76    1
    81    44    77    1
@<TRIPOS>MOLECULE
2-[[2-[2-butyl-4-[(Z)-2-carboxy-3-(6-methoxy-1,3-benzodioxol-5-yl)prop-1-enyl]pyrazol-3-yl]-5-methoxyphenoxy]methyl]benzoic acid
 77 81 0 0 0
SMALL
GASTEIGER

@<TRIPOS>ATOM
      1 O           3.8146    1.2469    6.3227 O.3     1  LIG1       -0.4866
      2 O          -0.8138   -5.2556   12.0138 O.3     1  LIG1       -0.4526
      3 O          -0.8830   -7.1157   10.4847 O.3     1  LIG1       -0.4525
      4 O          -0.7646   -4.1095    6.6433 O.3     1  LIG1       -0.4947
      5 O           7.7924   -0.6250    4.4291 O.3     1  LIG1       -0.4950
      6 O           0.8768   -0.7460   10.6708 O.co2   1  LIG1       -0.5449
      7 O           2.7068   -1.8131    9.8168 O.co2   1  LIG1       -0.5449
      8 O           1.0245    4.0872    4.7892 O.co2   1  LIG1       -0.5446
      9 O          -0.3590    4.7921    6.4347 O.co2   1  LIG1       -0.5446
     10 N           1.3141   -0.8523    3.7560 N.ar    1  LIG1       -0.2630
     11 N           0.0024   -0.7389    4.0316 N.ar    1  LIG1       -0.1785
     12 C           2.1327   -0.7675    4.8790 C.ar    1  LIG1        0.0795
     13 C           1.7179   -1.2317    2.4104 C.3     1  LIG1        0.0422
     14 C           0.6529   -1.1799    1.3037 C.3     1  LIG1       -0.0336
     15 C           1.2431   -0.7963    5.9520 C.ar    1  LIG1        0.0207
     16 C           3.6049   -0.6791    4.8224 C.ar    1  LIG1        0.0425
     17 C           0.9051   -2.2079    0.1924 C.3     1  LIG1       -0.0542
     18 C          -0.0262   -0.6385    5.3605 C.ar    1  LIG1        0.0571
     19 C           1.5901   -0.8925    7.3382 C.2     1  LIG1       -0.0459
     20 C          -0.5462   -1.8878    8.3968 C.3     1  LIG1        0.0029
     21 C           4.3406    0.3608    5.4215 C.ar    1  LIG1        0.1336
     22 C           0.8613   -1.3548    8.3769 C.2     1  LIG1       -0.0200
     23 C          -0.6813   -3.3262    8.8770 C.ar    1  LIG1        0.0023
     24 C           4.3314   -1.6709    4.1399 C.ar    1  LIG1       -0.0456
     25 C           2.2624   -2.0818   -0.4802 C.3     1  LIG1       -0.0652
     26 C           5.7427    0.4071    5.3158 C.ar    1  LIG1        0.0224
     27 C          -0.7603   -4.4209    7.9757 C.ar    1  LIG1        0.1273
     28 C          -0.7162   -3.5612   10.2678 C.ar    1  LIG1       -0.0092
     29 C           5.7218   -1.6024    4.0065 C.ar    1  LIG1       -0.0191
     30 C          -0.7871   -4.8579   10.7143 C.ar    1  LIG1        0.1667
     31 C           6.4356   -0.5680    4.6016 C.ar    1  LIG1        0.1236
     32 C          -0.8337   -5.9133    9.8364 C.ar    1  LIG1        0.1697
     33 C          -0.8305   -5.7353    8.4719 C.ar    1  LIG1        0.0258
     34 C           1.5568   -1.2823    9.7496 C.2     1  LIG1        0.0680
     35 C           3.0544    2.3448    5.7831 C.3     1  LIG1        0.1153
     36 C          -0.7630   -6.6794   11.8535 C.3     1  LIG1        0.2332
     37 C           3.0183    3.4423    6.8448 C.ar    1  LIG1       -0.0016
     38 C           1.9131    4.3153    6.9902 C.ar    1  LIG1        0.0037
     39 C           4.1150    3.5940    7.7227 C.ar    1  LIG1       -0.0547
     40 C          -1.0979   -5.1415    5.7266 C.3     1  LIG1        0.0788
     41 C           1.8963    5.2094    8.0840 C.ar    1  LIG1       -0.0525
     42 C           4.0936    4.5161    8.7699 C.ar    1  LIG1       -0.0614
     43 C           8.5627    0.0674    5.4051 C.3     1  LIG1        0.0788
     44 C           2.9707    5.3070    8.9676 C.ar    1  LIG1       -0.0611
     45 C           0.7625    4.3733    6.0020 C.2     1  LIG1        0.0720
     46 H           2.0620   -2.2673    2.5046 H       1  LIG1        0.0509
     47 H           2.5647   -0.5961    2.1297 H       1  LIG1        0.0509
     48 H           0.6199   -0.1693    0.8794 H       1  LIG1        0.0283
     49 H          -0.3482   -1.3843    1.6989 H       1  LIG1        0.0283
     50 H           0.1209   -2.1042   -0.5668 H       1  LIG1        0.0263
     51 H           0.8063   -3.2192    0.6065 H       1  LIG1        0.0263
     52 H          -0.9810   -0.4747    5.8380 H       1  LIG1        0.0854
     53 H           2.6031   -0.5700    7.5856 H       1  LIG1        0.0628
     54 H          -1.0291   -1.8217    7.4229 H       1  LIG1        0.0363
     55 H          -1.1680   -1.2440    9.0342 H       1  LIG1        0.0363
     56 H           3.8234   -2.5380    3.7300 H       1  LIG1        0.0626
     57 H           2.4002   -1.0831   -0.9041 H       1  LIG1        0.0230
     58 H           2.3450   -2.8117   -1.2926 H       1  LIG1        0.0230
     59 H           3.0788   -2.2784    0.2215 H       1  LIG1        0.0230
     60 H           6.2589    1.2118    5.8279 H       1  LIG1        0.0691
     61 H          -0.6546   -2.7365   10.9729 H       1  LIG1        0.0659
     62 H           6.2498   -2.3847    3.4691 H       1  LIG1        0.0654
     63 H          -0.8638   -6.5995    7.8269 H       1  LIG1        0.0692
     64 H           2.0464    1.9795    5.5779 H       1  LIG1        0.0748
     65 H           3.5209    2.7354    4.8716 H       1  LIG1        0.0748
     66 H          -1.5810   -7.1238   12.4313 H       1  LIG1        0.1166
     67 H           0.1886   -7.0467   12.2567 H       1  LIG1        0.1166
     68 H           4.9870    2.9547    7.6125 H       1  LIG1        0.0622
     69 H          -1.1721   -4.6969    4.7292 H       1  LIG1        0.0660
     70 H          -2.0707   -5.5862    5.9630 H       1  LIG1        0.0660
     71 H          -0.3145   -5.9060    5.6913 H       1  LIG1        0.0660
     72 H           1.0190    5.8380    8.2330 H       1  LIG1        0.0624
     73 H           4.9392    4.5865    9.4455 H       1  LIG1        0.0618
     74 H           9.6100   -0.2178    5.2634 H       1  LIG1        0.0660
     75 H           8.2757   -0.2212    6.4221 H       1  LIG1        0.0660
     76 H           8.4920    1.1503    5.2645 H       1  LIG1        0.0660
     77 H           2.9229    5.9980    9.8019 H       1  LIG1        0.0618
@<TRIPOS>BOND
     1     1    35    1
     2     1    21    1
     3     2    36    1
     4     2    30    1
     5     3    32    1
     6     3    36    1
     7     4    27    1
     8     4    40    1
     9     5    31    1
    10     5    43    1
    11     6    34   ar
    12     7    34   ar
    13     8    45   ar
    14     9    45   ar
    15    10    11   ar
    16    10    12   ar
    17    10    13    1
    18    11    18   ar
    19    12    15   ar
    20    13    14    1
    21    14    17    1
    22    15    18   ar
    23    15    19    1
    24    16    24   ar
    25    16    21   ar
    26    16    12    1
    27    17    25    1
    28    19    22    2
    29    20    22    1
    30    20    23    1
    31    21    26   ar
    32    22    34    1
    33    23    28   ar
    34    23    27   ar
    35    24    29   ar
    36    26    31   ar
    37    27    33   ar
    38    28    30   ar
    39    29    31   ar
    40    30    32   ar
    41    32    33   ar
    42    35    37    1
    43    37    39   ar
    44    37    38   ar
    45    38    41   ar
    46    38    45    1
    47    39    42   ar
    48    41    44   ar
    49    42    44   ar
    50    13    46    1
    51    13    47    1
    52    14    48    1
    53    14    49    1
    54    17    50    1
    55    17    51    1
    56    18    52    1
    57    19    53    1
    58    20    54    1
    59    20    55    1
    60    24    56    1
    61    25    57    1
    62    25    58    1
    63    25    59    1
    64    26    60    1
    65    28    61    1
    66    29    62    1
    67    33    63    1
    68    35    64    1
    69    35    65    1
    70    36    66    1
    71    36    67    1
    72    39    68    1
    73    40    69    1
    74    40    70    1
    75    40    71    1
    76    41    72    1
    77    42    73    1
    78    43    74    1
    79    43    75    1
    80    43    76    1
    81    44    77    1
@<TRIPOS>MOLECULE
2-[[2-[2-butyl-4-[(Z)-2-carboxy-3-(6-methoxy-1,3-benzodioxol-5-yl)prop-1-enyl]pyrazol-3-yl]-5-methoxyphenoxy]methyl]benzoic acid
 77 81 0 0 0
SMALL
GASTEIGER

@<TRIPOS>ATOM
      1 O           3.8149    1.2245    6.3457 O.3     1  LIG1       -0.4866
      2 O           3.0641   -5.1896   12.1940 O.3     1  LIG1       -0.4526
      3 O           4.9888   -6.0856   11.0565 O.3     1  LIG1       -0.4525
      4 O           3.3701   -4.4368    6.7564 O.3     1  LIG1       -0.4947
      5 O           7.7743   -0.5204    4.5998 O.3     1  LIG1       -0.4950
      6 O           0.3816   -1.4073   10.4423 O.co2   1  LIG1       -0.5449
      7 O           2.5582   -0.7317   10.2506 O.co2   1  LIG1       -0.5449
      8 O           1.0074    4.0280    4.7845 O.co2   1  LIG1       -0.5446
      9 O          -0.3789    4.6797    6.4470 O.co2   1  LIG1       -0.5446
     10 N           1.2891   -1.0433    3.8854 N.ar    1  LIG1       -0.2630
     11 N          -0.0218   -1.1439    4.1941 N.ar    1  LIG1       -0.1785
     12 C           2.1173   -0.8393    4.9883 C.ar    1  LIG1        0.0795
     13 C           1.7042   -1.3592    2.5265 C.3     1  LIG1        0.0422
     14 C           0.6625   -1.1883    1.4099 C.3     1  LIG1       -0.0336
     15 C           1.2393   -0.7973    6.0599 C.ar    1  LIG1        0.0207
     16 C           3.5854   -0.7422    4.9192 C.ar    1  LIG1        0.0425
     17 C           0.8826   -2.1670    0.2484 C.3     1  LIG1       -0.0542
     18 C          -0.0491   -0.9253    5.5078 C.ar    1  LIG1        0.0571
     19 C           1.5175   -0.6533    7.4490 C.2     1  LIG1       -0.0459
     20 C           1.2195   -3.1114    8.1038 C.3     1  LIG1        0.0029
     21 C           4.3307    0.3096    5.4723 C.ar    1  LIG1        0.1336
     22 C           1.4499   -1.6455    8.3589 C.2     1  LIG1       -0.0200
     23 C           2.2225   -4.0287    8.7957 C.ar    1  LIG1        0.0023
     24 C           4.3006   -1.7707    4.2776 C.ar    1  LIG1       -0.0456
     25 C           2.2464   -2.0520   -0.4136 C.3     1  LIG1       -0.0652
     26 C           5.7293    0.3392    5.3392 C.ar    1  LIG1        0.0224
     27 C           3.3256   -4.6120    8.1174 C.ar    1  LIG1        0.1273
     28 C           2.0673   -4.2437   10.1830 C.ar    1  LIG1       -0.0092
     29 C           5.6918   -1.7316    4.1312 C.ar    1  LIG1       -0.0191
     30 C           3.0374   -4.9432   10.8571 C.ar    1  LIG1        0.1667
     31 C           6.4148   -0.6689    4.6601 C.ar    1  LIG1        0.1236
     32 C           4.1281   -5.4585   10.2051 C.ar    1  LIG1        0.1697
     33 C           4.2925   -5.3293    8.8414 C.ar    1  LIG1        0.0258
     34 C           1.4667   -1.1954    9.8201 C.2     1  LIG1        0.0680
     35 C           3.1027    2.3308    5.7630 C.3     1  LIG1        0.1153
     36 C           4.3758   -5.7592   12.3228 C.3     1  LIG1        0.2332
     37 C           3.0387    3.4282    6.8203 C.ar    1  LIG1       -0.0016
     38 C           1.9128    4.2711    6.9758 C.ar    1  LIG1        0.0037
     39 C           4.1372    3.6011    7.6930 C.ar    1  LIG1       -0.0547
     40 C           4.3821   -5.1326    6.0462 C.3     1  LIG1        0.0788
     41 C           1.8819    5.1591    8.0740 C.ar    1  LIG1       -0.0525
     42 C           4.0995    4.5151    8.7458 C.ar    1  LIG1       -0.0614
     43 C           8.5130   -1.6345    4.1168 C.3     1  LIG1        0.0788
     44 C           2.9588    5.2774    8.9527 C.ar    1  LIG1       -0.0611
     45 C           0.7503    4.3006    6.0015 C.2     1  LIG1        0.0720
     46 H           2.0157   -2.4090    2.5664 H       1  LIG1        0.0509
     47 H           2.5757   -0.7383    2.2924 H       1  LIG1        0.0509
     48 H           0.6931   -0.1562    1.0401 H       1  LIG1        0.0283
     49 H          -0.3559   -1.3540    1.7770 H       1  LIG1        0.0283
     50 H           0.1061   -1.9977   -0.5070 H       1  LIG1        0.0263
     51 H           0.7476   -3.1940    0.6101 H       1  LIG1        0.0263
     52 H          -0.9991   -0.8992    6.0250 H       1  LIG1        0.0854
     53 H           1.6817    0.3657    7.8032 H       1  LIG1        0.0628
     54 H           1.2151   -3.3290    7.0299 H       1  LIG1        0.0363
     55 H           0.2114   -3.3815    8.4445 H       1  LIG1        0.0363
     56 H           3.7722   -2.6464    3.9116 H       1  LIG1        0.0626
     57 H           2.4121   -1.0419   -0.7990 H       1  LIG1        0.0230
     58 H           2.3136   -2.7521   -1.2532 H       1  LIG1        0.0230
     59 H           3.0544   -2.2958    0.2828 H       1  LIG1        0.0230
     60 H           6.2857    1.1428    5.8144 H       1  LIG1        0.0691
     61 H           1.2339   -3.8055   10.7263 H       1  LIG1        0.0659
     62 H           6.1708   -2.5561    3.6174 H       1  LIG1        0.0654
     63 H           5.1709   -5.7592    8.3822 H       1  LIG1        0.0692
     64 H           2.1032    1.9784    5.5020 H       1  LIG1        0.0748
     65 H           3.6224    2.7111    4.8758 H       1  LIG1        0.0748
     66 H           4.3001   -6.6753   12.9183 H       1  LIG1        0.1166
     67 H           5.0212   -5.0495   12.8560 H       1  LIG1        0.1166
     68 H           5.0215    2.9787    7.5767 H       1  LIG1        0.0622
     69 H           4.2228   -4.9625    4.9773 H       1  LIG1        0.0660
     70 H           4.3173   -6.2131    6.2158 H       1  LIG1        0.0660
     71 H           5.3769   -4.7515    6.2989 H       1  LIG1        0.0660
     72 H           0.9900    5.7637    8.2329 H       1  LIG1        0.0624
     73 H           4.9454    4.5975    9.4198 H       1  LIG1        0.0618
     74 H           9.5775   -1.4017    4.2180 H       1  LIG1        0.0660
     75 H           8.3114   -1.8089    3.0546 H       1  LIG1        0.0660
     76 H           8.3134   -2.5343    4.7090 H       1  LIG1        0.0660
     77 H           2.8980    5.9597    9.7932 H       1  LIG1        0.0618
@<TRIPOS>BOND
     1     1    35    1
     2     1    21    1
     3     2    36    1
     4     2    30    1
     5     3    32    1
     6     3    36    1
     7     4    27    1
     8     4    40    1
     9     5    31    1
    10     5    43    1
    11     6    34   ar
    12     7    34   ar
    13     8    45   ar
    14     9    45   ar
    15    10    11   ar
    16    10    12   ar
    17    10    13    1
    18    11    18   ar
    19    12    15   ar
    20    13    14    1
    21    14    17    1
    22    15    18   ar
    23    15    19    1
    24    16    24   ar
    25    16    21   ar
    26    16    12    1
    27    17    25    1
    28    19    22    2
    29    20    22    1
    30    20    23    1
    31    21    26   ar
    32    22    34    1
    33    23    28   ar
    34    23    27   ar
    35    24    29   ar
    36    26    31   ar
    37    27    33   ar
    38    28    30   ar
    39    29    31   ar
    40    30    32   ar
    41    32    33   ar
    42    35    37    1
    43    37    39   ar
    44    37    38   ar
    45    38    41   ar
    46    38    45    1
    47    39    42   ar
    48    41    44   ar
    49    42    44   ar
    50    13    46    1
    51    13    47    1
    52    14    48    1
    53    14    49    1
    54    17    50    1
    55    17    51    1
    56    18    52    1
    57    19    53    1
    58    20    54    1
    59    20    55    1
    60    24    56    1
    61    25    57    1
    62    25    58    1
    63    25    59    1
    64    26    60    1
    65    28    61    1
    66    29    62    1
    67    33    63    1
    68    35    64    1
    69    35    65    1
    70    36    66    1
    71    36    67    1
    72    39    68    1
    73    40    69    1
    74    40    70    1
    75    40    71    1
    76    41    72    1
    77    42    73    1
    78    43    74    1
    79    43    75    1
    80    43    76    1
    81    44    77    1
@<TRIPOS>MOLECULE
2-[[2-[2-butyl-4-[(Z)-2-carboxy-3-(6-methoxy-1,3-benzodioxol-5-yl)prop-1-enyl]pyrazol-3-yl]-5-methoxyphenoxy]methyl]benzoic acid
 77 81 0 0 0
SMALL
GASTEIGER

@<TRIPOS>ATOM
      1 O           4.1856    1.7214    5.2295 O.3     1  LIG1       -0.4866
      2 O          -3.5071    2.2018    4.8394 O.3     1  LIG1       -0.4526
      3 O          -2.2775    4.1817    4.2254 O.3     1  LIG1       -0.4525
      4 O           1.0442    3.3338    7.6867 O.3     1  LIG1       -0.4947
      5 O           8.0417   -1.0675    4.4206 O.3     1  LIG1       -0.4950
      6 O           1.0642   -0.5051   10.4044 O.co2   1  LIG1       -0.5449
      7 O           3.0463    0.2836    9.6103 O.co2   1  LIG1       -0.5449
      8 O           6.0765    3.4883    3.2727 O.co2   1  LIG1       -0.5446
      9 O           4.2206    4.6834    3.8310 O.co2   1  LIG1       -0.5446
     10 N           1.6085   -0.8042    3.5557 N.ar    1  LIG1       -0.2630
     11 N           0.2865   -0.8478    3.8441 N.ar    1  LIG1       -0.1785
     12 C           2.4095   -0.5313    4.6582 C.ar    1  LIG1        0.0795
     13 C           2.0172   -1.3621    2.2771 C.3     1  LIG1        0.0422
     14 C           1.3935   -0.7361    1.0281 C.3     1  LIG1       -0.0336
     15 C           1.5163   -0.3497    5.7128 C.ar    1  LIG1        0.0207
     16 C           3.8833   -0.6000    4.6378 C.ar    1  LIG1        0.0425
     17 C           2.2234    0.4333    0.4986 C.3     1  LIG1       -0.0542
     18 C           0.2473   -0.5685    5.1476 C.ar    1  LIG1        0.0571
     19 C           1.8616   -0.2081    7.0940 C.2     1  LIG1       -0.0459
     20 C          -0.2202    0.8621    8.2960 C.3     1  LIG1        0.0029
     21 C           4.7203    0.4932    4.9072 C.ar    1  LIG1        0.1336
     22 C           1.1448    0.2351    8.1510 C.2     1  LIG1       -0.0200
     23 C          -0.7242    1.8226    7.2308 C.ar    1  LIG1        0.0023
     24 C           4.4916   -1.8329    4.3364 C.ar    1  LIG1       -0.0456
     25 C           1.7604    0.8547   -0.8877 C.3     1  LIG1       -0.0652
     26 C           6.1146    0.3730    4.7990 C.ar    1  LIG1        0.0224
     27 C          -0.0399    3.0246    6.9066 C.ar    1  LIG1        0.1273
     28 C          -1.9449    1.5282    6.5856 C.ar    1  LIG1       -0.0092
     29 C           5.8797   -1.9573    4.2501 C.ar    1  LIG1       -0.0191
     30 C          -2.3811    2.3664    5.5857 C.ar    1  LIG1        0.1667
     31 C           6.6891   -0.8585    4.5053 C.ar    1  LIG1        0.1236
     32 C          -1.6790    3.4924    5.2363 C.ar    1  LIG1        0.1697
     33 C          -0.5177    3.8560    5.8824 C.ar    1  LIG1        0.0258
     34 C           1.8238   -0.0037    9.5206 C.2     1  LIG1        0.0680
     35 C           4.6098    2.1683    6.5252 C.3     1  LIG1        0.1153
     36 C          -3.3481    3.2784    3.8947 C.3     1  LIG1        0.2332
     37 C           5.5301    3.3864    6.5747 C.ar    1  LIG1       -0.0016
     38 C           5.8370    4.2415    5.4954 C.ar    1  LIG1        0.0037
     39 C           6.0890    3.6959    7.8348 C.ar    1  LIG1       -0.0547
     40 C           1.8920    4.3802    7.2247 C.3     1  LIG1        0.0788
     41 C           6.6955    5.3422    5.7018 C.ar    1  LIG1       -0.0525
     42 C           6.9349    4.7934    8.0237 C.ar    1  LIG1       -0.0614
     43 C           8.7478   -0.4916    5.5189 C.3     1  LIG1        0.0788
     44 C           7.2426    5.6192    6.9528 C.ar    1  LIG1       -0.0611
     45 C           5.3072    4.0787    4.0969 C.2     1  LIG1        0.0720
     46 H           1.7220   -2.4190    2.3256 H       1  LIG1        0.0509
     47 H           3.1046   -1.3388    2.1930 H       1  LIG1        0.0509
     48 H           0.3592   -0.4176    1.2019 H       1  LIG1        0.0283
     49 H           1.3579   -1.5121    0.2523 H       1  LIG1        0.0283
     50 H           3.2796    0.1447    0.4359 H       1  LIG1        0.0263
     51 H           2.1577    1.2820    1.1879 H       1  LIG1        0.0263
     52 H          -0.7064   -0.6100    5.6478 H       1  LIG1        0.0854
     53 H           2.8637   -0.5745    7.3280 H       1  LIG1        0.0628
     54 H          -0.2650    1.4306    9.2359 H       1  LIG1        0.0363
     55 H          -0.9429    0.0445    8.4231 H       1  LIG1        0.0363
     56 H           3.8757   -2.7122    4.1586 H       1  LIG1        0.0626
     57 H           1.8469    0.0240   -1.5970 H       1  LIG1        0.0230
     58 H           2.3772    1.6779   -1.2600 H       1  LIG1        0.0230
     59 H           0.7171    1.1843   -0.8726 H       1  LIG1        0.0230
     60 H           6.7256    1.2641    4.9155 H       1  LIG1        0.0691
     61 H          -2.5137    0.6410    6.8405 H       1  LIG1        0.0659
     62 H           6.3257   -2.9122    3.9959 H       1  LIG1        0.0654
     63 H          -0.0101    4.7630    5.5819 H       1  LIG1        0.0692
     64 H           5.0820    1.3562    7.0949 H       1  LIG1        0.0748
     65 H           3.7003    2.4170    7.0771 H       1  LIG1        0.0748
     66 H          -4.2835    3.8475    3.8552 H       1  LIG1        0.1166
     67 H          -3.1578    2.8520    2.9020 H       1  LIG1        0.1166
     68 H           5.8475    3.0648    8.6952 H       1  LIG1        0.0622
     69 H           2.7538    4.4312    7.8964 H       1  LIG1        0.0660
     70 H           1.3834    5.3479    7.2792 H       1  LIG1        0.0660
     71 H           2.2566    4.1814    6.2117 H       1  LIG1        0.0660
     72 H           6.9222    5.9876    4.8550 H       1  LIG1        0.0624
     73 H           7.3430    5.0012    9.0107 H       1  LIG1        0.0618
     74 H           9.7662   -0.8899    5.5026 H       1  LIG1        0.0660
     75 H           8.2947   -0.7775    6.4753 H       1  LIG1        0.0660
     76 H           8.8154    0.5973    5.4287 H       1  LIG1        0.0660
     77 H           7.8926    6.4763    7.0809 H       1  LIG1        0.0618
@<TRIPOS>BOND
     1     1    35    1
     2     1    21    1
     3     2    36    1
     4     2    30    1
     5     3    32    1
     6     3    36    1
     7     4    27    1
     8     4    40    1
     9     5    31    1
    10     5    43    1
    11     6    34   ar
    12     7    34   ar
    13     8    45   ar
    14     9    45   ar
    15    10    11   ar
    16    10    12   ar
    17    10    13    1
    18    11    18   ar
    19    12    15   ar
    20    13    14    1
    21    14    17    1
    22    15    18   ar
    23    15    19    1
    24    16    24   ar
    25    16    21   ar
    26    16    12    1
    27    17    25    1
    28    19    22    2
    29    20    22    1
    30    20    23    1
    31    21    26   ar
    32    22    34    1
    33    23    28   ar
    34    23    27   ar
    35    24    29   ar
    36    26    31   ar
    37    27    33   ar
    38    28    30   ar
    39    29    31   ar
    40    30    32   ar
    41    32    33   ar
    42    35    37    1
    43    37    39   ar
    44    37    38   ar
    45    38    41   ar
    46    38    45    1
    47    39    42   ar
    48    41    44   ar
    49    42    44   ar
    50    13    46    1
    51    13    47    1
    52    14    48    1
    53    14    49    1
    54    17    50    1
    55    17    51    1
    56    18    52    1
    57    19    53    1
    58    20    54    1
    59    20    55    1
    60    24    56    1
    61    25    57    1
    62    25    58    1
    63    25    59    1
    64    26    60    1
    65    28    61    1
    66    29    62    1
    67    33    63    1
    68    35    64    1
    69    35    65    1
    70    36    66    1
    71    36    67    1
    72    39    68    1
    73    40    69    1
    74    40    70    1
    75    40    71    1
    76    41    72    1
    77    42    73    1
    78    43    74    1
    79    43    75    1
    80    43    76    1
    81    44    77    1
@<TRIPOS>MOLECULE
2-[[2-[2-butyl-4-[(Z)-2-carboxy-3-(6-methoxy-1,3-benzodioxol-5-yl)prop-1-enyl]pyrazol-3-yl]-5-methoxyphenoxy]methyl]benzoic acid
 77 81 0 0 0
SMALL
GASTEIGER

@<TRIPOS>ATOM
      1 O           3.8067    1.2239    6.3216 O.3     1  LIG1       -0.4866
      2 O           3.0665   -5.1804   12.2011 O.3     1  LIG1       -0.4526
      3 O           4.9906   -6.0810   11.0662 O.3     1  LIG1       -0.4525
      4 O           3.3663   -4.4543    6.7594 O.3     1  LIG1       -0.4947
      5 O           7.7624   -0.3842    4.4282 O.3     1  LIG1       -0.4950
      6 O           0.3341   -1.4314   10.4203 O.co2   1  LIG1       -0.5449
      7 O           2.4992   -0.7304   10.2705 O.co2   1  LIG1       -0.5449
      8 O           1.0227    4.0422    4.7593 O.co2   1  LIG1       -0.5446
      9 O          -0.3767    4.7040    6.4073 O.co2   1  LIG1       -0.5446
     10 N           1.2984   -1.0660    3.8763 N.ar    1  LIG1       -0.2630
     11 N          -0.0111   -1.1783    4.1876 N.ar    1  LIG1       -0.1785
     12 C           2.1290   -0.8578    4.9768 C.ar    1  LIG1        0.0795
     13 C           1.7104   -1.3724    2.5140 C.3     1  LIG1        0.0422
     14 C           0.6628   -1.2059    1.4021 C.3     1  LIG1       -0.0336
     15 C           1.2535   -0.8233    6.0505 C.ar    1  LIG1        0.0207
     16 C           3.5960   -0.7399    4.8946 C.ar    1  LIG1        0.0425
     17 C           0.8826   -2.1830    0.2394 C.3     1  LIG1       -0.0542
     18 C          -0.0360   -0.9617    5.5016 C.ar    1  LIG1        0.0571
     19 C           1.5254   -0.6747    7.4407 C.2     1  LIG1       -0.0459
     20 C           1.2133   -3.1304    8.0995 C.3     1  LIG1        0.0029
     21 C           4.3293    0.3273    5.4337 C.ar    1  LIG1        0.1336
     22 C           1.4414   -1.6634    8.3534 C.2     1  LIG1       -0.0200
     23 C           2.2179   -4.0414    8.7969 C.ar    1  LIG1        0.0023
     24 C           4.3206   -1.7497    4.2348 C.ar    1  LIG1       -0.0456
     25 C           2.2445   -2.0638   -0.4258 C.3     1  LIG1       -0.0652
     26 C           5.7221    0.3969    5.2590 C.ar    1  LIG1        0.0224
     27 C           3.3225   -4.6248    8.1211 C.ar    1  LIG1        0.1273
     28 C           2.0653   -4.2484   10.1858 C.ar    1  LIG1       -0.0092
     29 C           5.7051   -1.6687    4.0429 C.ar    1  LIG1       -0.0191
     30 C           3.0379   -4.9419   10.8628 C.ar    1  LIG1        0.1667
     31 C           6.4125   -0.5817    4.5428 C.ar    1  LIG1        0.1236
     32 C           4.1284   -5.4594   10.2125 C.ar    1  LIG1        0.1697
     33 C           4.2911   -5.3372    8.8477 C.ar    1  LIG1        0.0258
     34 C           1.4206   -1.2097    9.8156 C.2     1  LIG1        0.0680
     35 C           3.0967    2.3359    5.7467 C.3     1  LIG1        0.1153
     36 C           4.3782   -5.7497   12.3315 C.3     1  LIG1        0.2332
     37 C           3.0294    3.4268    6.8104 C.ar    1  LIG1       -0.0016
     38 C           1.9061    4.2728    6.9613 C.ar    1  LIG1        0.0037
     39 C           4.1229    3.5905    7.6914 C.ar    1  LIG1       -0.0547
     40 C           4.3882   -5.1386    6.0522 C.3     1  LIG1        0.0788
     41 C           1.8682    5.1512    8.0657 C.ar    1  LIG1       -0.0525
     42 C           4.0802    4.4988    8.7499 C.ar    1  LIG1       -0.0614
     43 C           8.4891   -1.3581    3.6910 C.3     1  LIG1        0.0788
     44 C           2.9391    5.2606    8.9539 C.ar    1  LIG1       -0.0611
     45 C           0.7558    4.3146    5.9738 C.2     1  LIG1        0.0720
     46 H           2.0319   -2.4193    2.5487 H       1  LIG1        0.0509
     47 H           2.5746   -0.7419    2.2785 H       1  LIG1        0.0509
     48 H           0.6874   -0.1737    1.0328 H       1  LIG1        0.0283
     49 H          -0.3534   -1.3760    1.7734 H       1  LIG1        0.0283
     50 H           0.1038   -2.0153   -0.5136 H       1  LIG1        0.0263
     51 H           0.7515   -3.2107    0.6010 H       1  LIG1        0.0263
     52 H          -0.9851   -0.9427    6.0212 H       1  LIG1        0.0854
     53 H           1.6857    0.3446    7.7931 H       1  LIG1        0.0628
     54 H           1.2116   -3.3505    7.0271 H       1  LIG1        0.0363
     55 H           0.2037   -3.4045    8.4383 H       1  LIG1        0.0363
     56 H           3.8054   -2.6387    3.8823 H       1  LIG1        0.0626
     57 H           2.4071   -1.0526   -0.8098 H       1  LIG1        0.0230
     58 H           2.3112   -2.7623   -1.2667 H       1  LIG1        0.0230
     59 H           3.0550   -2.3070    0.2680 H       1  LIG1        0.0230
     60 H           6.2692    1.2156    5.7196 H       1  LIG1        0.0691
     61 H           1.2315   -3.8096   10.7277 H       1  LIG1        0.0659
     62 H           6.1914   -2.4814    3.5171 H       1  LIG1        0.0654
     63 H           5.1694   -5.7689    8.3899 H       1  LIG1        0.0692
     64 H           2.0975    1.9838    5.4829 H       1  LIG1        0.0748
     65 H           3.6161    2.7234    4.8626 H       1  LIG1        0.0748
     66 H           4.3024   -6.6635   12.9305 H       1  LIG1        0.1166
     67 H           5.0240   -5.0382   12.8617 H       1  LIG1        0.1166
     68 H           5.0066    2.9670    7.5773 H       1  LIG1        0.0622
     69 H           4.2324   -4.9666    4.9830 H       1  LIG1        0.0660
     70 H           4.3320   -6.2201    6.2186 H       1  LIG1        0.0660
     71 H           5.3784   -4.7496    6.3108 H       1  LIG1        0.0660
     72 H           0.9772    5.7575    8.2233 H       1  LIG1        0.0624
     73 H           4.9221    4.5754    9.4294 H       1  LIG1        0.0618
     74 H           9.5404   -1.0544    3.6782 H       1  LIG1        0.0660
     75 H           8.1457   -1.4064    2.6520 H       1  LIG1        0.0660
     76 H           8.4350   -2.3413    4.1706 H       1  LIG1        0.0660
     77 H           2.8741    5.9379    9.7996 H       1  LIG1        0.0618
@<TRIPOS>BOND
     1     1    35    1
     2     1    21    1
     3     2    36    1
     4     2    30    1
     5     3    32    1
     6     3    36    1
     7     4    27    1
     8     4    40    1
     9     5    31    1
    10     5    43    1
    11     6    34   ar
    12     7    34   ar
    13     8    45   ar
    14     9    45   ar
    15    10    11   ar
    16    10    12   ar
    17    10    13    1
    18    11    18   ar
    19    12    15   ar
    20    13    14    1
    21    14    17    1
    22    15    18   ar
    23    15    19    1
    24    16    24   ar
    25    16    21   ar
    26    16    12    1
    27    17    25    1
    28    19    22    2
    29    20    22    1
    30    20    23    1
    31    21    26   ar
    32    22    34    1
    33    23    28   ar
    34    23    27   ar
    35    24    29   ar
    36    26    31   ar
    37    27    33   ar
    38    28    30   ar
    39    29    31   ar
    40    30    32   ar
    41    32    33   ar
    42    35    37    1
    43    37    39   ar
    44    37    38   ar
    45    38    41   ar
    46    38    45    1
    47    39    42   ar
    48    41    44   ar
    49    42    44   ar
    50    13    46    1
    51    13    47    1
    52    14    48    1
    53    14    49    1
    54    17    50    1
    55    17    51    1
    56    18    52    1
    57    19    53    1
    58    20    54    1
    59    20    55    1
    60    24    56    1
    61    25    57    1
    62    25    58    1
    63    25    59    1
    64    26    60    1
    65    28    61    1
    66    29    62    1
    67    33    63    1
    68    35    64    1
    69    35    65    1
    70    36    66    1
    71    36    67    1
    72    39    68    1
    73    40    69    1
    74    40    70    1
    75    40    71    1
    76    41    72    1
    77    42    73    1
    78    43    74    1
    79    43    75    1
    80    43    76    1
    81    44    77    1
@<TRIPOS>MOLECULE
2-[[2-[2-butyl-4-[(Z)-2-carboxy-3-(6-methoxy-1,3-benzodioxol-5-yl)prop-1-enyl]pyrazol-3-yl]-5-methoxyphenoxy]methyl]benzoic acid
 77 81 0 0 0
SMALL
GASTEIGER

@<TRIPOS>ATOM
      1 O           4.0375    1.0689    6.3240 O.3     1  LIG1       -0.4866
      2 O          -0.8239   -5.2083   11.9884 O.3     1  LIG1       -0.4526
      3 O          -0.8887   -7.0782   10.4675 O.3     1  LIG1       -0.4525
      4 O          -0.7542   -4.0999    6.6090 O.3     1  LIG1       -0.4947
      5 O           7.8208   -0.6972    4.3109 O.3     1  LIG1       -0.4950
      6 O           0.8841   -0.7481   10.6647 O.co2   1  LIG1       -0.5449
      7 O           2.7052   -1.8342    9.8295 O.co2   1  LIG1       -0.5449
      8 O           1.3419    4.1309    5.1274 O.co2   1  LIG1       -0.5446
      9 O          -0.4031    4.3800    6.5453 O.co2   1  LIG1       -0.5446
     10 N           1.3204   -0.8332    3.7598 N.ar    1  LIG1       -0.2630
     11 N           0.0255   -0.6209    4.0527 N.ar    1  LIG1       -0.1785
     12 C           2.1638   -0.7956    4.8691 C.ar    1  LIG1        0.0795
     13 C           1.6762   -1.2453    2.4105 C.3     1  LIG1        0.0422
     14 C           0.5879   -1.1690    1.3283 C.3     1  LIG1       -0.0336
     15 C           1.2891   -0.7640    5.9539 C.ar    1  LIG1        0.0207
     16 C           3.6378   -0.7850    4.7776 C.ar    1  LIG1        0.0425
     17 C           0.7997   -2.1933    0.2048 C.3     1  LIG1       -0.0542
     18 C           0.0242   -0.5147    5.3817 C.ar    1  LIG1        0.0571
     19 C           1.6362   -0.8757    7.3379 C.2     1  LIG1       -0.0459
     20 C          -0.5207   -1.8641    8.3567 C.3     1  LIG1        0.0029
     21 C           4.4461    0.2198    5.3386 C.ar    1  LIG1        0.1336
     22 C           0.8922   -1.3413    8.3658 C.2     1  LIG1       -0.0200
     23 C          -0.6746   -3.3005    8.8419 C.ar    1  LIG1        0.0023
     24 C           4.2927   -1.8159    4.0784 C.ar    1  LIG1       -0.0456
     25 C           2.1510   -2.0974   -0.4845 C.3     1  LIG1       -0.0652
     26 C           5.8381    0.2091    5.1463 C.ar    1  LIG1        0.0224
     27 C          -0.7570   -4.4014    7.9470 C.ar    1  LIG1        0.1273
     28 C          -0.7218   -3.5296   10.2330 C.ar    1  LIG1       -0.0092
     29 C           5.6801   -1.8184    3.8811 C.ar    1  LIG1       -0.0191
     30 C          -0.7954   -4.8205   10.6863 C.ar    1  LIG1        0.1667
     31 C           6.4602   -0.7990    4.4139 C.ar    1  LIG1        0.1236
     32 C          -0.8394   -5.8823    9.8182 C.ar    1  LIG1        0.1697
     33 C          -0.8329   -5.7092    8.4489 C.ar    1  LIG1        0.0258
     34 C           1.5711   -1.2838    9.7487 C.2     1  LIG1        0.0680
     35 C           3.2378    2.2107    5.9774 C.3     1  LIG1        0.1153
     36 C          -0.7604   -6.6357   11.8361 C.3     1  LIG1        0.2332
     37 C           2.8806    2.9017    7.2927 C.ar    1  LIG1       -0.0016
     38 C           1.7030    3.6777    7.4429 C.ar    1  LIG1        0.0037
     39 C           3.7285    2.7351    8.4124 C.ar    1  LIG1       -0.0547
     40 C          -1.1108   -5.1330    5.7039 C.3     1  LIG1        0.0788
     41 C           1.3637    4.1279    8.7382 C.ar    1  LIG1       -0.0525
     42 C           3.3852    3.2207    9.6730 C.ar    1  LIG1       -0.0614
     43 C           8.5104   -1.8803    3.9301 C.3     1  LIG1        0.0788
     44 C           2.1861    3.8940    9.8424 C.ar    1  LIG1       -0.0611
     45 C           0.8030    4.0634    6.2842 C.2     1  LIG1        0.0720
     46 H           1.9797   -2.2927    2.5090 H       1  LIG1        0.0509
     47 H           2.5398   -0.6467    2.1019 H       1  LIG1        0.0509
     48 H           0.5607   -0.1552    0.9115 H       1  LIG1        0.0283
     49 H          -0.4062   -1.3618    1.7465 H       1  LIG1        0.0283
     50 H           0.0083   -2.0634   -0.5430 H       1  LIG1        0.0263
     51 H           0.6804   -3.2053    0.6119 H       1  LIG1        0.0263
     52 H          -0.9066   -0.2811    5.8784 H       1  LIG1        0.0854
     53 H           2.6503   -0.5643    7.5938 H       1  LIG1        0.0628
     54 H          -0.9787   -1.8015    7.3690 H       1  LIG1        0.0363
     55 H          -1.1523   -1.2142    8.9753 H       1  LIG1        0.0363
     56 H           3.7253   -2.6621    3.7028 H       1  LIG1        0.0626
     57 H           2.3119   -1.0979   -0.8985 H       1  LIG1        0.0230
     58 H           2.2028   -2.8197   -1.3061 H       1  LIG1        0.0230
     59 H           2.9705   -2.3255    0.2041 H       1  LIG1        0.0230
     60 H           6.4411    0.9719    5.6330 H       1  LIG1        0.0691
     61 H          -0.6616   -2.6989   10.9340 H       1  LIG1        0.0659
     62 H           6.1135   -2.6389    3.3217 H       1  LIG1        0.0654
     63 H          -0.8657   -6.5800    7.8105 H       1  LIG1        0.0692
     64 H           2.3388    1.8819    5.4532 H       1  LIG1        0.0748
     65 H           3.8241    2.8930    5.3524 H       1  LIG1        0.0748
     66 H          -1.5687   -7.0848   12.4239 H       1  LIG1        0.1166
     67 H           0.1986   -6.9906   12.2332 H       1  LIG1        0.1166
     68 H           4.6506    2.1662    8.3195 H       1  LIG1        0.0622
     69 H          -1.1906   -4.6933    4.7049 H       1  LIG1        0.0660
     70 H          -2.0869   -5.5641    5.9531 H       1  LIG1        0.0660
     71 H          -0.3381   -5.9067    5.6651 H       1  LIG1        0.0660
     72 H           0.4244    4.6614    8.8784 H       1  LIG1        0.0624
     73 H           4.0317    3.0231   10.5219 H       1  LIG1        0.0618
     74 H           9.5820   -1.6995    4.0583 H       1  LIG1        0.0660
     75 H           8.3361   -2.1101    2.8739 H       1  LIG1        0.0660
     76 H           8.2392   -2.7285    4.5684 H       1  LIG1        0.0660
     77 H           1.8802    4.2261   10.8286 H       1  LIG1        0.0618
@<TRIPOS>BOND
     1     1    35    1
     2     1    21    1
     3     2    36    1
     4     2    30    1
     5     3    32    1
     6     3    36    1
     7     4    27    1
     8     4    40    1
     9     5    31    1
    10     5    43    1
    11     6    34   ar
    12     7    34   ar
    13     8    45   ar
    14     9    45   ar
    15    10    11   ar
    16    10    12   ar
    17    10    13    1
    18    11    18   ar
    19    12    15   ar
    20    13    14    1
    21    14    17    1
    22    15    18   ar
    23    15    19    1
    24    16    24   ar
    25    16    21   ar
    26    16    12    1
    27    17    25    1
    28    19    22    2
    29    20    22    1
    30    20    23    1
    31    21    26   ar
    32    22    34    1
    33    23    28   ar
    34    23    27   ar
    35    24    29   ar
    36    26    31   ar
    37    27    33   ar
    38    28    30   ar
    39    29    31   ar
    40    30    32   ar
    41    32    33   ar
    42    35    37    1
    43    37    39   ar
    44    37    38   ar
    45    38    41   ar
    46    38    45    1
    47    39    42   ar
    48    41    44   ar
    49    42    44   ar
    50    13    46    1
    51    13    47    1
    52    14    48    1
    53    14    49    1
    54    17    50    1
    55    17    51    1
    56    18    52    1
    57    19    53    1
    58    20    54    1
    59    20    55    1
    60    24    56    1
    61    25    57    1
    62    25    58    1
    63    25    59    1
    64    26    60    1
    65    28    61    1
    66    29    62    1
    67    33    63    1
    68    35    64    1
    69    35    65    1
    70    36    66    1
    71    36    67    1
    72    39    68    1
    73    40    69    1
    74    40    70    1
    75    40    71    1
    76    41    72    1
    77    42    73    1
    78    43    74    1
    79    43    75    1
    80    43    76    1
    81    44    77    1
@<TRIPOS>MOLECULE
2-[[2-[2-butyl-4-[(Z)-2-carboxy-3-(6-methoxy-1,3-benzodioxol-5-yl)prop-1-enyl]pyrazol-3-yl]-5-methoxyphenoxy]methyl]benzoic acid
 77 81 0 0 0
SMALL
GASTEIGER

@<TRIPOS>ATOM
      1 O           4.0834    0.9506    2.5761 O.3     1  LIG1       -0.4866
      2 O           1.7732    3.3292   12.9091 O.3     1  LIG1       -0.4526
      3 O          -0.5855    3.1304   13.3747 O.3     1  LIG1       -0.4525
      4 O          -1.4440    1.3768    8.9024 O.3     1  LIG1       -0.4947
      5 O           8.0129    1.3361    5.2213 O.3     1  LIG1       -0.4950
      6 O           3.4090   -0.1778   10.0026 O.co2   1  LIG1       -0.5449
      7 O           1.5635   -1.5281   10.0165 O.co2   1  LIG1       -0.5449
      8 O           2.9310    0.6194   -0.8264 O.co2   1  LIG1       -0.5446
      9 O           3.9690    1.6167   -2.5758 O.co2   1  LIG1       -0.5446
     10 N           1.8094   -0.6383    3.6579 N.ar    1  LIG1       -0.2630
     11 N           0.4735   -0.5647    3.9242 N.ar    1  LIG1       -0.1785
     12 C           2.6019   -0.3442    4.7659 C.ar    1  LIG1        0.0795
     13 C           2.1659   -1.2044    2.3637 C.3     1  LIG1        0.0422
     14 C           3.3874   -2.1307    2.2826 C.3     1  LIG1       -0.0336
     15 C           1.6965   -0.4887    5.8293 C.ar    1  LIG1        0.0207
     16 C           4.0620   -0.0223    4.7682 C.ar    1  LIG1        0.0425
     17 C           3.3835   -3.2982    3.2724 C.3     1  LIG1       -0.0542
     18 C           0.4193   -0.5184    5.2516 C.ar    1  LIG1        0.0571
     19 C           1.9683   -0.7298    7.2092 C.2     1  LIG1       -0.0459
     20 C           1.3378    1.4863    8.3254 C.3     1  LIG1        0.0029
     21 C           4.7135    0.7617    3.7776 C.ar    1  LIG1        0.1336
     22 C           1.8150    0.0676    8.2834 C.2     1  LIG1       -0.0200
     23 C           0.7320    1.9471    9.6472 C.ar    1  LIG1        0.0023
     24 C           4.8255   -0.3979    5.8926 C.ar    1  LIG1       -0.0456
     25 C           4.7222   -4.0246    3.2522 C.3     1  LIG1       -0.0652
     26 C           5.9953    1.2678    4.0397 C.ar    1  LIG1        0.0224
     27 C          -0.6560    1.8417    9.9249 C.ar    1  LIG1        0.1273
     28 C           1.6027    2.4499   10.6395 C.ar    1  LIG1       -0.0092
     29 C           6.1453    0.0187    6.0786 C.ar    1  LIG1       -0.0191
     30 C           1.0769    2.8245   11.8548 C.ar    1  LIG1        0.1667
     31 C           6.7322    0.8577    5.1490 C.ar    1  LIG1        0.1236
     32 C          -0.2653    2.7138   12.1170 C.ar    1  LIG1        0.1697
     33 C          -1.1552    2.2334   11.1781 C.ar    1  LIG1        0.0258
     34 C           2.2921   -0.5953    9.5747 C.2     1  LIG1        0.0680
     35 C           4.6945    1.6428    1.4717 C.3     1  LIG1        0.1153
     36 C           0.7254    3.4494   13.8862 C.3     1  LIG1        0.2332
     37 C           5.6140    0.8589    0.5209 C.ar    1  LIG1       -0.0016
     38 C           5.3051    0.6843   -0.8533 C.ar    1  LIG1        0.0037
     39 C           6.8944    0.4450    0.9463 C.ar    1  LIG1       -0.0547
     40 C          -2.7819    1.0284    9.2247 C.3     1  LIG1        0.0788
     41 C           6.2935    0.1835   -1.7352 C.ar    1  LIG1       -0.0525
     42 C           7.8541   -0.0592    0.0602 C.ar    1  LIG1       -0.0614
     43 C           8.9357    0.4477    5.8442 C.3     1  LIG1        0.0788
     44 C           7.5606   -0.1740   -1.2879 C.ar    1  LIG1       -0.0611
     45 C           3.9587    1.0111   -1.4571 C.2     1  LIG1        0.0720
     46 H           2.2488   -0.3713    1.6617 H       1  LIG1        0.0509
     47 H           1.2957   -1.7912    2.0374 H       1  LIG1        0.0509
     48 H           4.3102   -1.5598    2.4014 H       1  LIG1        0.0283
     49 H           3.4294   -2.5397    1.2641 H       1  LIG1        0.0283
     50 H           2.5788   -3.9986    3.0236 H       1  LIG1        0.0263
     51 H           3.2035   -2.9554    4.2949 H       1  LIG1        0.0263
     52 H          -0.5408   -0.5673    5.7472 H       1  LIG1        0.0854
     53 H           2.3486   -1.7352    7.4029 H       1  LIG1        0.0628
     54 H           0.6176    1.6755    7.5201 H       1  LIG1        0.0363
     55 H           2.1907    2.1414    8.1011 H       1  LIG1        0.0363
     56 H           4.4007   -1.0178    6.6759 H       1  LIG1        0.0626
     57 H           4.9200   -4.4567    2.2667 H       1  LIG1        0.0230
     58 H           4.7294   -4.8321    3.9901 H       1  LIG1        0.0230
     59 H           5.5412   -3.3390    3.4970 H       1  LIG1        0.0230
     60 H           6.4761    1.9646    3.3640 H       1  LIG1        0.0691
     61 H           2.6740    2.4965   10.4637 H       1  LIG1        0.0659
     62 H           6.6558   -0.2904    6.9843 H       1  LIG1        0.0654
     63 H          -2.2030    2.1718   11.4361 H       1  LIG1        0.0692
     64 H           5.2190    2.5431    1.8135 H       1  LIG1        0.0748
     65 H           3.8564    2.0576    0.9053 H       1  LIG1        0.0748
     66 H           0.7100    4.4812   14.2559 H       1  LIG1        0.1166
     67 H           0.9477    2.7824   14.7280 H       1  LIG1        0.1166
     68 H           7.1978    0.5326    1.9795 H       1  LIG1        0.0622
     69 H          -3.2324    0.5699    8.3395 H       1  LIG1        0.0660
     70 H          -3.3693    1.9204    9.4677 H       1  LIG1        0.0660
     71 H          -2.8240    0.2955   10.0379 H       1  LIG1        0.0660
     72 H           6.0494    0.0899   -2.7936 H       1  LIG1        0.0624
     73 H           8.8362   -0.3373    0.4311 H       1  LIG1        0.0618
     74 H           9.9451    0.7887    5.5959 H       1  LIG1        0.0660
     75 H           8.8317   -0.5764    5.4665 H       1  LIG1        0.0660
     76 H           8.8299    0.4773    6.9327 H       1  LIG1        0.0660
     77 H           8.3036   -0.5377   -1.9890 H       1  LIG1        0.0618
@<TRIPOS>BOND
     1     1    35    1
     2     1    21    1
     3     2    36    1
     4     2    30    1
     5     3    32    1
     6     3    36    1
     7     4    27    1
     8     4    40    1
     9     5    31    1
    10     5    43    1
    11     6    34   ar
    12     7    34   ar
    13     8    45   ar
    14     9    45   ar
    15    10    11   ar
    16    10    12   ar
    17    10    13    1
    18    11    18   ar
    19    12    15   ar
    20    13    14    1
    21    14    17    1
    22    15    18   ar
    23    15    19    1
    24    16    24   ar
    25    16    21   ar
    26    16    12    1
    27    17    25    1
    28    19    22    2
    29    20    22    1
    30    20    23    1
    31    21    26   ar
    32    22    34    1
    33    23    28   ar
    34    23    27   ar
    35    24    29   ar
    36    26    31   ar
    37    27    33   ar
    38    28    30   ar
    39    29    31   ar
    40    30    32   ar
    41    32    33   ar
    42    35    37    1
    43    37    39   ar
    44    37    38   ar
    45    38    41   ar
    46    38    45    1
    47    39    42   ar
    48    41    44   ar
    49    42    44   ar
    50    13    46    1
    51    13    47    1
    52    14    48    1
    53    14    49    1
    54    17    50    1
    55    17    51    1
    56    18    52    1
    57    19    53    1
    58    20    54    1
    59    20    55    1
    60    24    56    1
    61    25    57    1
    62    25    58    1
    63    25    59    1
    64    26    60    1
    65    28    61    1
    66    29    62    1
    67    33    63    1
    68    35    64    1
    69    35    65    1
    70    36    66    1
    71    36    67    1
    72    39    68    1
    73    40    69    1
    74    40    70    1
    75    40    71    1
    76    41    72    1
    77    42    73    1
    78    43    74    1
    79    43    75    1
    80    43    76    1
    81    44    77    1
@<TRIPOS>MOLECULE
2-[[2-[2-butyl-4-[(Z)-2-carboxy-3-(6-methoxy-1,3-benzodioxol-5-yl)prop-1-enyl]pyrazol-3-yl]-5-methoxyphenoxy]methyl]benzoic acid
 77 81 0 0 0
SMALL
GASTEIGER

@<TRIPOS>ATOM
      1 O           3.7932    1.2433    6.2837 O.3     1  LIG1       -0.4866
      2 O          -0.8261   -5.2848   12.0080 O.3     1  LIG1       -0.4526
      3 O          -0.8608   -7.1367   10.4638 O.3     1  LIG1       -0.4525
      4 O          -0.7760   -4.1057    6.6429 O.3     1  LIG1       -0.4947
      5 O           7.7264   -0.5556    4.5467 O.3     1  LIG1       -0.4950
      6 O           0.8048   -0.7333   10.6941 O.co2   1  LIG1       -0.5449
      7 O           2.6387   -1.7962    9.8442 O.co2   1  LIG1       -0.5449
      8 O           0.9871    4.0781    4.7589 O.co2   1  LIG1       -0.5446
      9 O          -0.3890    4.7847    6.4112 O.co2   1  LIG1       -0.5446
     10 N           1.2496   -0.8464    3.7808 N.ar    1  LIG1       -0.2630
     11 N          -0.0628   -0.7333    4.0539 N.ar    1  LIG1       -0.1785
     12 C           2.0644   -0.7748    4.9060 C.ar    1  LIG1        0.0795
     13 C           1.6615   -1.2109    2.4334 C.3     1  LIG1        0.0422
     14 C           0.6059   -1.1341    1.3195 C.3     1  LIG1       -0.0336
     15 C           1.1748   -0.7811    5.9771 C.ar    1  LIG1        0.0207
     16 C           3.5358   -0.7221    4.8505 C.ar    1  LIG1        0.0425
     17 C           0.8554   -2.1506    0.1971 C.3     1  LIG1       -0.0542
     18 C          -0.0927   -0.6210    5.3825 C.ar    1  LIG1        0.0571
     19 C           1.5239   -0.8662    7.3632 C.2     1  LIG1       -0.0459
     20 C          -0.6007   -1.8919    8.4139 C.3     1  LIG1        0.0029
     21 C           4.2926    0.3279    5.3985 C.ar    1  LIG1        0.1336
     22 C           0.7985   -1.3398    8.3997 C.2     1  LIG1       -0.0200
     23 C          -0.7135   -3.3351    8.8846 C.ar    1  LIG1        0.0023
     24 C           4.2358   -1.7665    4.2199 C.ar    1  LIG1       -0.0456
     25 C           2.2164   -2.0266   -0.4685 C.3     1  LIG1       -0.0652
     26 C           5.6912    0.3375    5.2699 C.ar    1  LIG1        0.0224
     27 C          -0.7726   -4.4258    7.9763 C.ar    1  LIG1        0.1273
     28 C          -0.7492   -3.5793   10.2724 C.ar    1  LIG1       -0.0092
     29 C           5.6290   -1.7450    4.0801 C.ar    1  LIG1       -0.0191
     30 C          -0.8009   -4.8798   10.7105 C.ar    1  LIG1        0.1667
     31 C           6.3647   -0.6864    4.6020 C.ar    1  LIG1        0.1236
     32 C          -0.8279   -5.9310    9.8287 C.ar    1  LIG1        0.1697
     33 C          -0.8235   -5.7407    8.4618 C.ar    1  LIG1        0.0258
     34 C           1.4915   -1.2663    9.7737 C.2     1  LIG1        0.0680
     35 C           3.0420    2.3442    5.7374 C.3     1  LIG1        0.1153
     36 C          -0.7560   -6.7089   11.8388 C.3     1  LIG1        0.2332
     37 C           2.9943    3.4359    6.8050 C.ar    1  LIG1       -0.0016
     38 C           1.8873    4.3066    6.9546 C.ar    1  LIG1        0.0037
     39 C           4.0874    3.5787    7.6905 C.ar    1  LIG1       -0.0547
     40 C          -1.0963   -5.1346    5.7208 C.3     1  LIG1        0.0788
     41 C           1.8716    5.1970    8.0515 C.ar    1  LIG1       -0.0525
     42 C           4.0624    4.4907    8.7459 C.ar    1  LIG1       -0.0614
     43 C           8.4547   -1.6904    4.0968 C.3     1  LIG1        0.0788
     44 C           2.9420    5.2849    8.9414 C.ar    1  LIG1       -0.0611
     45 C           0.7317    4.3646    5.9707 C.2     1  LIG1        0.0720
     46 H           2.0002   -2.2494    2.5157 H       1  LIG1        0.0509
     47 H           2.5155   -0.5777    2.1688 H       1  LIG1        0.0509
     48 H           0.5870   -0.1181    0.9075 H       1  LIG1        0.0283
     49 H          -0.4003   -1.3323    1.7047 H       1  LIG1        0.0283
     50 H           0.0754   -2.0319   -0.5642 H       1  LIG1        0.0263
     51 H           0.7472   -3.1661    0.5985 H       1  LIG1        0.0263
     52 H          -1.0469   -0.4496    5.8590 H       1  LIG1        0.0854
     53 H           2.5315   -0.5287    7.6102 H       1  LIG1        0.0628
     54 H          -1.0832   -1.8256    7.4392 H       1  LIG1        0.0363
     55 H          -1.2319   -1.2621    9.0554 H       1  LIG1        0.0363
     56 H           3.6975   -2.6372    3.8564 H       1  LIG1        0.0626
     57 H           2.3622   -1.0248   -0.8824 H       1  LIG1        0.0230
     58 H           2.2978   -2.7491   -1.2876 H       1  LIG1        0.0230
     59 H           3.0286   -2.2349    0.2346 H       1  LIG1        0.0230
     60 H           6.2582    1.1355    5.7420 H       1  LIG1        0.0691
     61 H          -0.7019   -2.7580   10.9830 H       1  LIG1        0.0659
     62 H           6.1008   -2.5806    3.5766 H       1  LIG1        0.0654
     63 H          -0.8416   -6.6032    7.8113 H       1  LIG1        0.0692
     64 H           2.0373    1.9828    5.5114 H       1  LIG1        0.0748
     65 H           3.5265    2.7373    4.8364 H       1  LIG1        0.0748
     66 H          -1.5719   -7.1674   12.4084 H       1  LIG1        0.1166
     67 H           0.1973   -7.0662   12.2468 H       1  LIG1        0.1166
     68 H           4.9587    2.9374    7.5804 H       1  LIG1        0.0622
     69 H          -1.1756   -4.6840    4.7268 H       1  LIG1        0.0660
     70 H          -2.0641   -5.5922    5.9538 H       1  LIG1        0.0660
     71 H          -0.3045   -5.8894    5.6808 H       1  LIG1        0.0660
     72 H           0.9967    5.8288    8.1998 H       1  LIG1        0.0624
     73 H           4.9035    4.5503    9.4281 H       1  LIG1        0.0618
     74 H           9.5210   -1.4711    4.2087 H       1  LIG1        0.0660
     75 H           8.2658   -1.8823    3.0354 H       1  LIG1        0.0660
     76 H           8.2339   -2.5755    4.7032 H       1  LIG1        0.0660
     77 H           2.8920    5.9703    9.7804 H       1  LIG1        0.0618
@<TRIPOS>BOND
     1     1    35    1
     2     1    21    1
     3     2    36    1
     4     2    30    1
     5     3    32    1
     6     3    36    1
     7     4    27    1
     8     4    40    1
     9     5    31    1
    10     5    43    1
    11     6    34   ar
    12     7    34   ar
    13     8    45   ar
    14     9    45   ar
    15    10    11   ar
    16    10    12   ar
    17    10    13    1
    18    11    18   ar
    19    12    15   ar
    20    13    14    1
    21    14    17    1
    22    15    18   ar
    23    15    19    1
    24    16    24   ar
    25    16    21   ar
    26    16    12    1
    27    17    25    1
    28    19    22    2
    29    20    22    1
    30    20    23    1
    31    21    26   ar
    32    22    34    1
    33    23    28   ar
    34    23    27   ar
    35    24    29   ar
    36    26    31   ar
    37    27    33   ar
    38    28    30   ar
    39    29    31   ar
    40    30    32   ar
    41    32    33   ar
    42    35    37    1
    43    37    39   ar
    44    37    38   ar
    45    38    41   ar
    46    38    45    1
    47    39    42   ar
    48    41    44   ar
    49    42    44   ar
    50    13    46    1
    51    13    47    1
    52    14    48    1
    53    14    49    1
    54    17    50    1
    55    17    51    1
    56    18    52    1
    57    19    53    1
    58    20    54    1
    59    20    55    1
    60    24    56    1
    61    25    57    1
    62    25    58    1
    63    25    59    1
    64    26    60    1
    65    28    61    1
    66    29    62    1
    67    33    63    1
    68    35    64    1
    69    35    65    1
    70    36    66    1
    71    36    67    1
    72    39    68    1
    73    40    69    1
    74    40    70    1
    75    40    71    1
    76    41    72    1
    77    42    73    1
    78    43    74    1
    79    43    75    1
    80    43    76    1
    81    44    77    1
@<TRIPOS>MOLECULE
2-[[2-[2-butyl-4-[(Z)-2-carboxy-3-(6-methoxy-1,3-benzodioxol-5-yl)prop-1-enyl]pyrazol-3-yl]-5-methoxyphenoxy]methyl]benzoic acid
 77 81 0 0 0
SMALL
GASTEIGER

@<TRIPOS>ATOM
      1 O           4.3378    1.7300    5.5718 O.3     1  LIG1       -0.4866
      2 O          -3.9104    1.1969    4.8889 O.3     1  LIG1       -0.4526
      3 O          -3.8052   -0.6607    3.3548 O.3     1  LIG1       -0.4525
      4 O          -0.8156   -3.1041    6.2728 O.3     1  LIG1       -0.4947
      5 O           7.7989   -1.6323    4.7140 O.3     1  LIG1       -0.4950
      6 O           0.6985   -0.1668   10.4399 O.co2   1  LIG1       -0.5449
      7 O           2.4042   -1.3773    9.5189 O.co2   1  LIG1       -0.5449
      8 O           5.8776    4.5247    4.2465 O.co2   1  LIG1       -0.5446
      9 O           4.1615    5.9645    3.9737 O.co2   1  LIG1       -0.5446
     10 N           1.6598    0.1187    3.5833 N.ar    1  LIG1       -0.2630
     11 N           0.5229    0.8206    3.7588 N.ar    1  LIG1       -0.1785
     12 C           2.3563   -0.0957    4.7581 C.ar    1  LIG1        0.0795
     13 C           1.9739   -0.3644    2.2486 C.3     1  LIG1        0.0422
     14 C           0.8152   -1.1313    1.5837 C.3     1  LIG1       -0.0336
     15 C           1.4372    0.2010    5.7554 C.ar    1  LIG1        0.0207
     16 C           3.7774   -0.4731    4.8255 C.ar    1  LIG1        0.0425
     17 C          -0.1487   -0.2594    0.7683 C.3     1  LIG1       -0.0542
     18 C           0.4296    0.9136    5.0865 C.ar    1  LIG1        0.0571
     19 C           1.6047   -0.0420    7.1516 C.2     1  LIG1       -0.0459
     20 C          -0.7378   -0.8748    8.0857 C.3     1  LIG1        0.0029
     21 C           4.7636    0.4692    5.2028 C.ar    1  LIG1        0.1336
     22 C           0.7211   -0.4780    8.0748 C.2     1  LIG1       -0.0200
     23 C          -1.5577   -0.8940    6.8126 C.ar    1  LIG1        0.0023
     24 C           4.1763   -1.7697    4.4704 C.ar    1  LIG1       -0.0456
     25 C           0.4984    0.3361   -0.4735 C.3     1  LIG1       -0.0652
     26 C           6.1202    0.1017    5.1576 C.ar    1  LIG1        0.0224
     27 C          -1.5264   -1.9867    5.9127 C.ar    1  LIG1        0.1273
     28 C          -2.3969    0.2024    6.5241 C.ar    1  LIG1       -0.0092
     29 C           5.5301   -2.1182    4.4387 C.ar    1  LIG1       -0.0191
     30 C          -3.1029    0.1982    5.3392 C.ar    1  LIG1        0.1667
     31 C           6.5054   -1.1867    4.7907 C.ar    1  LIG1        0.1236
     32 C          -3.0393   -0.8593    4.4640 C.ar    1  LIG1        0.1697
     33 C          -2.2822   -1.9777    4.7314 C.ar    1  LIG1        0.0258
     34 C           1.3497   -0.6834    9.4789 C.2     1  LIG1        0.0680
     35 C           5.2806    2.5296    6.2939 C.3     1  LIG1        0.1153
     36 C          -4.2251    0.7026    3.5735 C.3     1  LIG1        0.2332
     37 C           4.6583    3.7848    6.8711 C.ar    1  LIG1       -0.0016
     38 C           4.4539    4.9691    6.1228 C.ar    1  LIG1        0.0037
     39 C           4.2870    3.7641    8.2362 C.ar    1  LIG1       -0.0547
     40 C           0.1612   -3.4572    5.2993 C.3     1  LIG1        0.0788
     41 C           3.8832    6.0838    6.7800 C.ar    1  LIG1       -0.0525
     42 C           3.7541    4.8902    8.8647 C.ar    1  LIG1       -0.0614
     43 C           8.7355   -0.9266    5.5246 C.3     1  LIG1        0.0788
     44 C           3.5484    6.0532    8.1343 C.ar    1  LIG1       -0.0611
     45 C           4.8460    5.1395    4.6628 C.2     1  LIG1        0.0720
     46 H           2.8129   -1.0589    2.3314 H       1  LIG1        0.0509
     47 H           2.3173    0.4929    1.6652 H       1  LIG1        0.0509
     48 H           0.2391   -1.6767    2.3422 H       1  LIG1        0.0283
     49 H           1.2336   -1.8900    0.9129 H       1  LIG1        0.0283
     50 H          -0.5700    0.5429    1.3816 H       1  LIG1        0.0263
     51 H          -0.9933   -0.8830    0.4501 H       1  LIG1        0.0263
     52 H          -0.3781    1.4876    5.5112 H       1  LIG1        0.0854
     53 H           2.6315    0.1033    7.4977 H       1  LIG1        0.0628
     54 H          -1.2596   -0.2106    8.7888 H       1  LIG1        0.0363
     55 H          -0.8218   -1.8727    8.5387 H       1  LIG1        0.0363
     56 H           3.4301   -2.5164    4.2099 H       1  LIG1        0.0626
     57 H           1.2837    1.0520   -0.2154 H       1  LIG1        0.0230
     58 H          -0.2496    0.8673   -1.0703 H       1  LIG1        0.0230
     59 H           0.9377   -0.4466   -1.0999 H       1  LIG1        0.0230
     60 H           6.8813    0.8396    5.3770 H       1  LIG1        0.0691
     61 H          -2.4457    1.0571    7.1913 H       1  LIG1        0.0659
     62 H           5.8245   -3.1213    4.1443 H       1  LIG1        0.0654
     63 H          -2.2815   -2.8156    4.0487 H       1  LIG1        0.0692
     64 H           6.1428    2.7893    5.6769 H       1  LIG1        0.0748
     65 H           5.6772    1.9390    7.1329 H       1  LIG1        0.0748
     66 H          -3.7444    1.3459    2.8258 H       1  LIG1        0.1166
     67 H          -5.3105    0.7575    3.4325 H       1  LIG1        0.1166
     68 H           4.4184    2.8557    8.8212 H       1  LIG1        0.0622
     69 H           0.9128   -4.0828    5.7895 H       1  LIG1        0.0660
     70 H           0.6686   -2.5844    4.8796 H       1  LIG1        0.0660
     71 H          -0.2963   -4.0484    4.4993 H       1  LIG1        0.0660
     72 H           3.7110    6.9938    6.2061 H       1  LIG1        0.0624
     73 H           3.4903    4.8485    9.9156 H       1  LIG1        0.0618
     74 H           9.6786   -1.4813    5.5047 H       1  LIG1        0.0660
     75 H           8.4009   -0.8770    6.5670 H       1  LIG1        0.0660
     76 H           8.9356    0.0731    5.1256 H       1  LIG1        0.0660
     77 H           3.1253    6.9319    8.6060 H       1  LIG1        0.0618
@<TRIPOS>BOND
     1     1    35    1
     2     1    21    1
     3     2    36    1
     4     2    30    1
     5     3    32    1
     6     3    36    1
     7     4    27    1
     8     4    40    1
     9     5    31    1
    10     5    43    1
    11     6    34   ar
    12     7    34   ar
    13     8    45   ar
    14     9    45   ar
    15    10    11   ar
    16    10    12   ar
    17    10    13    1
    18    11    18   ar
    19    12    15   ar
    20    13    14    1
    21    14    17    1
    22    15    18   ar
    23    15    19    1
    24    16    24   ar
    25    16    21   ar
    26    16    12    1
    27    17    25    1
    28    19    22    2
    29    20    22    1
    30    20    23    1
    31    21    26   ar
    32    22    34    1
    33    23    28   ar
    34    23    27   ar
    35    24    29   ar
    36    26    31   ar
    37    27    33   ar
    38    28    30   ar
    39    29    31   ar
    40    30    32   ar
    41    32    33   ar
    42    35    37    1
    43    37    39   ar
    44    37    38   ar
    45    38    41   ar
    46    38    45    1
    47    39    42   ar
    48    41    44   ar
    49    42    44   ar
    50    13    46    1
    51    13    47    1
    52    14    48    1
    53    14    49    1
    54    17    50    1
    55    17    51    1
    56    18    52    1
    57    19    53    1
    58    20    54    1
    59    20    55    1
    60    24    56    1
    61    25    57    1
    62    25    58    1
    63    25    59    1
    64    26    60    1
    65    28    61    1
    66    29    62    1
    67    33    63    1
    68    35    64    1
    69    35    65    1
    70    36    66    1
    71    36    67    1
    72    39    68    1
    73    40    69    1
    74    40    70    1
    75    40    71    1
    76    41    72    1
    77    42    73    1
    78    43    74    1
    79    43    75    1
    80    43    76    1
    81    44    77    1
@<TRIPOS>MOLECULE
2-[[2-[2-butyl-4-[(Z)-2-carboxy-3-(6-methoxy-1,3-benzodioxol-5-yl)prop-1-enyl]pyrazol-3-yl]-5-methoxyphenoxy]methyl]benzoic acid
 77 81 0 0 0
SMALL
GASTEIGER

@<TRIPOS>ATOM
      1 O           3.9574    0.9300    2.5155 O.3     1  LIG1       -0.4866
      2 O          -3.6054   -0.6070   11.8644 O.3     1  LIG1       -0.4526
      3 O          -3.6250   -3.0045   12.1399 O.3     1  LIG1       -0.4525
      4 O          -0.7137   -3.5907    8.2731 O.3     1  LIG1       -0.4947
      5 O           7.7539    1.1911    5.3716 O.3     1  LIG1       -0.4950
      6 O           0.6295    1.0380    9.8572 O.co2   1  LIG1       -0.5449
      7 O           2.2496   -0.5679    9.6867 O.co2   1  LIG1       -0.5449
      8 O           2.8989    0.5474   -0.8322 O.co2   1  LIG1       -0.5446
      9 O           3.9414    1.5224   -2.5906 O.co2   1  LIG1       -0.5446
     10 N           1.7727   -0.9706    3.3958 N.ar    1  LIG1       -0.2630
     11 N           0.4229   -0.9872    3.5201 N.ar    1  LIG1       -0.1785
     12 C           2.4193   -0.4869    4.5265 C.ar    1  LIG1        0.0795
     13 C           2.2993   -1.5162    2.1553 C.3     1  LIG1        0.0422
     14 C           3.5866   -2.3429    2.2092 C.3     1  LIG1       -0.0336
     15 C           1.4052   -0.4130    5.4975 C.ar    1  LIG1        0.0207
     16 C           3.8651   -0.1659    4.6339 C.ar    1  LIG1        0.0425
     17 C           3.5595   -3.4973    3.2138 C.3     1  LIG1       -0.0542
     18 C           0.2139   -0.6215    4.7786 C.ar    1  LIG1        0.0571
     19 C           1.5569   -0.1260    6.9014 C.2     1  LIG1       -0.0459
     20 C          -0.7297   -0.8042    7.8348 C.3     1  LIG1        0.0029
     21 C           4.5482    0.6797    3.7244 C.ar    1  LIG1        0.1336
     22 C           0.6857   -0.3149    7.9225 C.2     1  LIG1       -0.0200
     23 C          -1.3925   -1.4577    9.0392 C.ar    1  LIG1        0.0023
     24 C           4.5673   -0.6349    5.7615 C.ar    1  LIG1       -0.0456
     25 C           4.9249   -4.1633    3.3027 C.3     1  LIG1       -0.0652
     26 C           5.8062    1.1752    4.0813 C.ar    1  LIG1        0.0224
     27 C          -1.4023   -2.8676    9.2126 C.ar    1  LIG1        0.1273
     28 C          -2.1011   -0.6389    9.9433 C.ar    1  LIG1       -0.0092
     29 C           5.8729   -0.2231    6.0366 C.ar    1  LIG1       -0.0191
     30 C          -2.8206   -1.2405   10.9506 C.ar    1  LIG1        0.1667
     31 C           6.4902    0.6928    5.1973 C.ar    1  LIG1        0.1236
     32 C          -2.8338   -2.6045   11.1046 C.ar    1  LIG1        0.1697
     33 C          -2.1281   -3.4427   10.2663 C.ar    1  LIG1        0.0258
     34 C           1.2359    0.0764    9.2971 C.2     1  LIG1        0.0680
     35 C           4.6180    1.6561    1.4638 C.3     1  LIG1        0.1153
     36 C          -4.1045   -1.7289   12.6122 C.3     1  LIG1        0.2332
     37 C           5.5703    0.8904    0.5349 C.ar    1  LIG1       -0.0016
     38 C           5.2716    0.6553   -0.8321 C.ar    1  LIG1        0.0037
     39 C           6.8630    0.5393    0.9795 C.ar    1  LIG1       -0.0547
     40 C          -0.6602   -4.9991    8.4320 C.3     1  LIG1        0.0788
     41 C           6.2733    0.1391   -1.6879 C.ar    1  LIG1       -0.0525
     42 C           7.8365    0.0184    0.1193 C.ar    1  LIG1       -0.0614
     43 C           8.6717    0.2790    5.9651 C.3     1  LIG1        0.0788
     44 C           7.5472   -0.1691   -1.2207 C.ar    1  LIG1       -0.0611
     45 C           3.9284    0.9423   -1.4589 C.2     1  LIG1        0.0720
     46 H           2.3964   -0.6798    1.4583 H       1  LIG1        0.0509
     47 H           1.5124   -2.1653    1.7456 H       1  LIG1        0.0509
     48 H           4.4465   -1.7008    2.4115 H       1  LIG1        0.0283
     49 H           3.7617   -2.7553    1.2077 H       1  LIG1        0.0283
     50 H           2.8071   -4.2355    2.9154 H       1  LIG1        0.0263
     51 H           3.2853   -3.1469    4.2130 H       1  LIG1        0.0263
     52 H          -0.8080   -0.5423    5.1146 H       1  LIG1        0.0854
     53 H           2.5241    0.2862    7.1905 H       1  LIG1        0.0628
     54 H          -0.8252   -1.5207    7.0155 H       1  LIG1        0.0363
     55 H          -1.3557    0.0499    7.5407 H       1  LIG1        0.0363
     56 H           4.0814   -1.3120    6.4638 H       1  LIG1        0.0626
     57 H           5.2146   -4.5940    2.3389 H       1  LIG1        0.0230
     58 H           4.9110   -4.9645    4.0468 H       1  LIG1        0.0230
     59 H           5.6930   -3.4406    3.5995 H       1  LIG1        0.0230
     60 H           6.3061    1.9263    3.4816 H       1  LIG1        0.0691
     61 H          -2.0853    0.4424    9.8402 H       1  LIG1        0.0659
     62 H           6.3501   -0.5910    6.9385 H       1  LIG1        0.0654
     63 H          -2.1753   -4.5090   10.4326 H       1  LIG1        0.0692
     64 H           5.1323    2.5398    1.8604 H       1  LIG1        0.0748
     65 H           3.8105    2.0962    0.8705 H       1  LIG1        0.0748
     66 H          -5.1997   -1.7279   12.5545 H       1  LIG1        0.1166
     67 H          -3.8131   -1.6117   13.6628 H       1  LIG1        0.1166
     68 H           7.1631    0.6945    2.0061 H       1  LIG1        0.0622
     69 H          -0.0379   -5.4038    7.6281 H       1  LIG1        0.0660
     70 H          -1.6569   -5.4417    8.3328 H       1  LIG1        0.0660
     71 H          -0.1971   -5.2772    9.3840 H       1  LIG1        0.0660
     72 H           6.0362   -0.0037   -2.7410 H       1  LIG1        0.0624
     73 H           8.8250   -0.2152    0.5033 H       1  LIG1        0.0618
     74 H           9.6811    0.6629    5.7898 H       1  LIG1        0.0660
     75 H           8.6119   -0.7141    5.5051 H       1  LIG1        0.0660
     76 H           8.5176    0.2215    7.0465 H       1  LIG1        0.0660
     77 H           8.3004   -0.5486   -1.9045 H       1  LIG1        0.0618
@<TRIPOS>BOND
     1     1    35    1
     2     1    21    1
     3     2    36    1
     4     2    30    1
     5     3    32    1
     6     3    36    1
     7     4    27    1
     8     4    40    1
     9     5    31    1
    10     5    43    1
    11     6    34   ar
    12     7    34   ar
    13     8    45   ar
    14     9    45   ar
    15    10    11   ar
    16    10    12   ar
    17    10    13    1
    18    11    18   ar
    19    12    15   ar
    20    13    14    1
    21    14    17    1
    22    15    18   ar
    23    15    19    1
    24    16    24   ar
    25    16    21   ar
    26    16    12    1
    27    17    25    1
    28    19    22    2
    29    20    22    1
    30    20    23    1
    31    21    26   ar
    32    22    34    1
    33    23    28   ar
    34    23    27   ar
    35    24    29   ar
    36    26    31   ar
    37    27    33   ar
    38    28    30   ar
    39    29    31   ar
    40    30    32   ar
    41    32    33   ar
    42    35    37    1
    43    37    39   ar
    44    37    38   ar
    45    38    41   ar
    46    38    45    1
    47    39    42   ar
    48    41    44   ar
    49    42    44   ar
    50    13    46    1
    51    13    47    1
    52    14    48    1
    53    14    49    1
    54    17    50    1
    55    17    51    1
    56    18    52    1
    57    19    53    1
    58    20    54    1
    59    20    55    1
    60    24    56    1
    61    25    57    1
    62    25    58    1
    63    25    59    1
    64    26    60    1
    65    28    61    1
    66    29    62    1
    67    33    63    1
    68    35    64    1
    69    35    65    1
    70    36    66    1
    71    36    67    1
    72    39    68    1
    73    40    69    1
    74    40    70    1
    75    40    71    1
    76    41    72    1
    77    42    73    1
    78    43    74    1
    79    43    75    1
    80    43    76    1
    81    44    77    1
@<TRIPOS>MOLECULE
2-[[2-[2-butyl-4-[(Z)-2-carboxy-3-(6-methoxy-1,3-benzodioxol-5-yl)prop-1-enyl]pyrazol-3-yl]-5-methoxyphenoxy]methyl]benzoic acid
 77 81 0 0 0
SMALL
GASTEIGER

@<TRIPOS>ATOM
      1 O           3.8045    1.2558    6.2621 O.3     1  LIG1       -0.4866
      2 O          -0.7557   -5.1694   11.9886 O.3     1  LIG1       -0.4526
      3 O          -0.8325   -7.0482   10.4790 O.3     1  LIG1       -0.4525
      4 O          -0.7918   -4.0912    6.6014 O.3     1  LIG1       -0.4947
      5 O           7.7019   -0.8022    4.3887 O.3     1  LIG1       -0.4950
      6 O           0.6676   -0.5227   10.6307 O.co2   1  LIG1       -0.5449
      7 O           2.5794   -1.5559    9.9264 O.co2   1  LIG1       -0.5449
      8 O           2.8028    4.7055    4.1098 O.co2   1  LIG1       -0.5446
      9 O           1.3559    6.2167    4.9487 O.co2   1  LIG1       -0.5446
     10 N           1.1987   -0.6007    3.7940 N.ar    1  LIG1       -0.2630
     11 N          -0.0782   -0.3200    4.1122 N.ar    1  LIG1       -0.1785
     12 C           2.0525   -0.6356    4.8913 C.ar    1  LIG1        0.0795
     13 C           1.5301   -0.9296    2.4201 C.3     1  LIG1        0.0422
     14 C           0.4463   -0.7845    1.3391 C.3     1  LIG1       -0.0336
     15 C           1.1937   -0.6023    5.9872 C.ar    1  LIG1        0.0207
     16 C           3.5255   -0.6556    4.7964 C.ar    1  LIG1        0.0425
     17 C          -0.8540   -1.5860    1.5062 C.3     1  LIG1       -0.0542
     18 C          -0.0696   -0.3011    5.4429 C.ar    1  LIG1        0.0571
     19 C           1.5422   -0.7286    7.3685 C.2     1  LIG1       -0.0459
     20 C          -0.5816   -1.8361    8.3304 C.3     1  LIG1        0.0029
     21 C           4.3250    0.3425    5.3864 C.ar    1  LIG1        0.1336
     22 C           0.7977   -1.2325    8.3771 C.2     1  LIG1       -0.0200
     23 C          -0.6779   -3.2734    8.8283 C.ar    1  LIG1        0.0023
     24 C           4.1810   -1.6706    4.0814 C.ar    1  LIG1       -0.0456
     25 C          -0.6836   -3.0117    2.0050 C.3     1  LIG1       -0.0652
     26 C           5.7223    0.3202    5.2745 C.ar    1  LIG1        0.0224
     27 C          -0.7605   -4.3822    7.9420 C.ar    1  LIG1        0.1273
     28 C          -0.6929   -3.4953   10.2211 C.ar    1  LIG1       -0.0092
     29 C           5.5736   -1.6746    3.9380 C.ar    1  LIG1       -0.0191
     30 C          -0.7461   -4.7879   10.6838 C.ar    1  LIG1        0.1667
     31 C           6.3463   -0.6937    4.5535 C.ar    1  LIG1        0.1236
     32 C          -0.7957   -5.8544    9.8227 C.ar    1  LIG1        0.1697
     33 C          -0.8112   -5.6884    8.4534 C.ar    1  LIG1        0.0258
     34 C           1.4153   -1.0809    9.7767 C.2     1  LIG1        0.0680
     35 C           3.4124    2.5053    5.6644 C.3     1  LIG1        0.1153
     36 C          -0.7139   -6.5977   11.8453 C.3     1  LIG1        0.2332
     37 C           3.0621    3.5006    6.7711 C.ar    1  LIG1       -0.0016
     38 C           2.4688    4.7566    6.4842 C.ar    1  LIG1        0.0037
     39 C           3.3202    3.1677    8.1228 C.ar    1  LIG1       -0.0547
     40 C          -1.1221   -5.1455    5.7108 C.3     1  LIG1        0.0788
     41 C           2.1309    5.6020    7.5677 C.ar    1  LIG1       -0.0525
     42 C           2.9914    4.0297    9.1700 C.ar    1  LIG1       -0.0614
     43 C           8.4370   -0.5467    5.5839 C.3     1  LIG1        0.0788
     44 C           2.3893    5.2471    8.8926 C.ar    1  LIG1       -0.0611
     45 C           2.1778    5.2493    5.0718 C.2     1  LIG1        0.0720
     46 H           1.8678   -1.9713    2.4250 H       1  LIG1        0.0509
     47 H           2.3817   -0.2982    2.1416 H       1  LIG1        0.0509
     48 H           0.9020   -1.0922    0.3882 H       1  LIG1        0.0283
     49 H           0.1884    0.2750    1.2218 H       1  LIG1        0.0283
     50 H          -1.3643   -1.6138    0.5352 H       1  LIG1        0.0263
     51 H          -1.5381   -1.0541    2.1763 H       1  LIG1        0.0263
     52 H          -0.9886   -0.0724    5.9636 H       1  LIG1        0.0854
     53 H           2.5326   -0.3634    7.6398 H       1  LIG1        0.0628
     54 H          -1.0039   -1.8043    7.3247 H       1  LIG1        0.0363
     55 H          -1.2698   -1.2172    8.9218 H       1  LIG1        0.0363
     56 H           3.6169   -2.4912    3.6502 H       1  LIG1        0.0626
     57 H          -0.0252   -3.5866    1.3477 H       1  LIG1        0.0230
     58 H          -1.6568   -3.5138    2.0353 H       1  LIG1        0.0230
     59 H          -0.2745   -3.0392    3.0190 H       1  LIG1        0.0230
     60 H           6.2904    1.0987    5.7724 H       1  LIG1        0.0691
     61 H          -0.6379   -2.6642   10.9195 H       1  LIG1        0.0659
     62 H           6.0574   -2.4684    3.3773 H       1  LIG1        0.0654
     63 H          -0.8492   -6.5644    7.8216 H       1  LIG1        0.0692
     64 H           2.5286    2.3269    5.0425 H       1  LIG1        0.0748
     65 H           4.2459    2.8996    5.0763 H       1  LIG1        0.0748
     66 H          -1.5366   -7.0297   12.4259 H       1  LIG1        0.1166
     67 H           0.2338   -6.9664   12.2559 H       1  LIG1        0.1166
     68 H           3.7645    2.2075    8.3821 H       1  LIG1        0.0622
     69 H          -1.2260   -4.7208    4.7081 H       1  LIG1        0.0660
     70 H          -2.0815   -5.6051    5.9732 H       1  LIG1        0.0660
     71 H          -0.3242   -5.8941    5.6732 H       1  LIG1        0.0660
     72 H           1.6499    6.5565    7.3587 H       1  LIG1        0.0624
     73 H           3.1857    3.7272   10.1948 H       1  LIG1        0.0618
     74 H           9.4606   -0.9002    5.4245 H       1  LIG1        0.0660
     75 H           8.0236   -1.0989    6.4356 H       1  LIG1        0.0660
     76 H           8.4868    0.5252    5.7976 H       1  LIG1        0.0660
     77 H           2.1089    5.9156    9.6993 H       1  LIG1        0.0618
@<TRIPOS>BOND
     1     1    35    1
     2     1    21    1
     3     2    36    1
     4     2    30    1
     5     3    32    1
     6     3    36    1
     7     4    27    1
     8     4    40    1
     9     5    31    1
    10     5    43    1
    11     6    34   ar
    12     7    34   ar
    13     8    45   ar
    14     9    45   ar
    15    10    11   ar
    16    10    12   ar
    17    10    13    1
    18    11    18   ar
    19    12    15   ar
    20    13    14    1
    21    14    17    1
    22    15    18   ar
    23    15    19    1
    24    16    24   ar
    25    16    21   ar
    26    16    12    1
    27    17    25    1
    28    19    22    2
    29    20    22    1
    30    20    23    1
    31    21    26   ar
    32    22    34    1
    33    23    28   ar
    34    23    27   ar
    35    24    29   ar
    36    26    31   ar
    37    27    33   ar
    38    28    30   ar
    39    29    31   ar
    40    30    32   ar
    41    32    33   ar
    42    35    37    1
    43    37    39   ar
    44    37    38   ar
    45    38    41   ar
    46    38    45    1
    47    39    42   ar
    48    41    44   ar
    49    42    44   ar
    50    13    46    1
    51    13    47    1
    52    14    48    1
    53    14    49    1
    54    17    50    1
    55    17    51    1
    56    18    52    1
    57    19    53    1
    58    20    54    1
    59    20    55    1
    60    24    56    1
    61    25    57    1
    62    25    58    1
    63    25    59    1
    64    26    60    1
    65    28    61    1
    66    29    62    1
    67    33    63    1
    68    35    64    1
    69    35    65    1
    70    36    66    1
    71    36    67    1
    72    39    68    1
    73    40    69    1
    74    40    70    1
    75    40    71    1
    76    41    72    1
    77    42    73    1
    78    43    74    1
    79    43    75    1
    80    43    76    1
    81    44    77    1
@<TRIPOS>MOLECULE
2-[[2-[2-butyl-4-[(Z)-2-carboxy-3-(6-methoxy-1,3-benzodioxol-5-yl)prop-1-enyl]pyrazol-3-yl]-5-methoxyphenoxy]methyl]benzoic acid
 77 81 0 0 0
SMALL
GASTEIGER

@<TRIPOS>ATOM
      1 O           3.8296    1.2553    6.2743 O.3     1  LIG1       -0.4866
      2 O          -0.8092   -5.2529   11.9946 O.3     1  LIG1       -0.4526
      3 O          -0.8565   -7.1160   10.4645 O.3     1  LIG1       -0.4525
      4 O          -0.7787   -4.1146    6.6209 O.3     1  LIG1       -0.4947
      5 O           7.7458   -0.5694    4.5362 O.3     1  LIG1       -0.4950
      6 O           2.6365   -1.7612    9.8329 O.co2   1  LIG1       -0.5449
      7 O           0.7873   -0.7131   10.6681 O.co2   1  LIG1       -0.5449
      8 O           0.9775    4.0665    4.7881 O.co2   1  LIG1       -0.5446
      9 O          -0.4062    4.7288    6.4543 O.co2   1  LIG1       -0.5446
     10 N           1.2642   -0.8284    3.7626 N.ar    1  LIG1       -0.2630
     11 N          -0.0471   -0.6999    4.0339 N.ar    1  LIG1       -0.1785
     12 C           2.0799   -0.7532    4.8877 C.ar    1  LIG1        0.0795
     13 C           1.6712   -1.2128    2.4192 C.3     1  LIG1        0.0422
     14 C           0.6130   -1.1480    1.3068 C.3     1  LIG1       -0.0336
     15 C           1.1884   -0.7537    5.9575 C.ar    1  LIG1        0.0207
     16 C           3.5522   -0.7068    4.8341 C.ar    1  LIG1        0.0425
     17 C           0.8563   -2.1809    0.1978 C.3     1  LIG1       -0.0542
     18 C          -0.0773   -0.5835    5.3619 C.ar    1  LIG1        0.0571
     19 C           1.5318   -0.8397    7.3449 C.2     1  LIG1       -0.0459
     20 C          -0.5928   -1.8855    8.3756 C.3     1  LIG1        0.0029
     21 C           4.3165    0.3351    5.3876 C.ar    1  LIG1        0.1336
     22 C           0.8027   -1.3219    8.3748 C.2     1  LIG1       -0.0200
     23 C          -0.7050   -3.3259    8.8566 C.ar    1  LIG1        0.0023
     24 C           4.2471   -1.7532    4.2008 C.ar    1  LIG1       -0.0456
     25 C           2.2178   -2.0740   -0.4695 C.3     1  LIG1       -0.0652
     26 C           5.7161    0.3347    5.2606 C.ar    1  LIG1        0.0224
     27 C          -0.7713   -4.4237    7.9570 C.ar    1  LIG1        0.1273
     28 C          -0.7370   -3.5607   10.2463 C.ar    1  LIG1       -0.0092
     29 C           5.6406   -1.7412    4.0621 C.ar    1  LIG1       -0.0191
     30 C          -0.7898   -4.8576   10.6941 C.ar    1  LIG1        0.1667
     31 C           6.3833   -0.6907    4.5894 C.ar    1  LIG1        0.1236
     32 C          -0.8235   -5.9152    9.8205 C.ar    1  LIG1        0.1697
     33 C          -0.8239   -5.7351    8.4524 C.ar    1  LIG1        0.0258
     34 C           1.4839   -1.2406    9.7543 C.2     1  LIG1        0.0680
     35 C           3.0559    2.3447    5.7377 C.3     1  LIG1        0.1153
     36 C          -0.7417   -6.6781   11.8354 C.3     1  LIG1        0.2332
     37 C           3.0068    3.4344    6.8070 C.ar    1  LIG1       -0.0016
     38 C           1.8844    4.2820    6.9762 C.ar    1  LIG1        0.0037
     39 C           4.1112    3.5980    7.6746 C.ar    1  LIG1       -0.0547
     40 C          -1.1179   -5.1477    5.7100 C.3     1  LIG1        0.0788
     41 C           1.8623    5.1585    8.0832 C.ar    1  LIG1       -0.0525
     42 C           4.0820    4.5033    8.7359 C.ar    1  LIG1       -0.0614
     43 C           8.4664   -1.7099    4.0884 C.3     1  LIG1        0.0788
     44 C           2.9441    5.2654    8.9573 C.ar    1  LIG1       -0.0611
     45 C           0.7175    4.3308    6.0048 C.2     1  LIG1        0.0720
     46 H           2.0045   -2.2518    2.5148 H       1  LIG1        0.0509
     47 H           2.5273   -0.5871    2.1440 H       1  LIG1        0.0509
     48 H           0.5963   -0.1378    0.8807 H       1  LIG1        0.0283
     49 H          -0.3929   -1.3377    1.6970 H       1  LIG1        0.0283
     50 H           0.0767   -2.0678   -0.5647 H       1  LIG1        0.0263
     51 H           0.7422   -3.1903    0.6128 H       1  LIG1        0.0263
     52 H          -1.0300   -0.4027    5.8386 H       1  LIG1        0.0854
     53 H           2.5346   -0.4928    7.5983 H       1  LIG1        0.0628
     54 H          -1.0616   -1.8292    7.3933 H       1  LIG1        0.0363
     55 H          -1.2366   -1.2549    9.0035 H       1  LIG1        0.0363
     56 H           3.7047   -2.6201    3.8344 H       1  LIG1        0.0626
     57 H           2.3703   -1.0781   -0.8952 H       1  LIG1        0.0230
     58 H           2.2940   -2.8067   -1.2800 H       1  LIG1        0.0230
     59 H           3.0287   -2.2796    0.2358 H       1  LIG1        0.0230
     60 H           6.2881    1.1273    5.7361 H       1  LIG1        0.0691
     61 H          -0.6869   -2.7346   10.9515 H       1  LIG1        0.0659
     62 H           6.1068   -2.5776    3.5549 H       1  LIG1        0.0654
     63 H          -0.8468   -6.6029    7.8091 H       1  LIG1        0.0692
     64 H           2.0524    1.9718    5.5270 H       1  LIG1        0.0748
     65 H           3.5225    2.7442    4.8302 H       1  LIG1        0.0748
     66 H          -1.5543   -7.1312   12.4138 H       1  LIG1        0.1166
     67 H           0.2141   -7.0333   12.2392 H       1  LIG1        0.1166
     68 H           4.9961    2.9792    7.5456 H       1  LIG1        0.0622
     69 H          -1.2033   -4.7043    4.7131 H       1  LIG1        0.0660
     70 H          -2.0872   -5.5953    5.9562 H       1  LIG1        0.0660
     71 H          -0.3329   -5.9097    5.6680 H       1  LIG1        0.0660
     72 H           0.9735    5.7651    8.2518 H       1  LIG1        0.0624
     73 H           4.9337    4.5816    9.4034 H       1  LIG1        0.0618
     74 H           9.5340   -1.5005    4.2073 H       1  LIG1        0.0660
     75 H           8.2819   -1.8977    3.0255 H       1  LIG1        0.0660
     76 H           8.2338   -2.5942    4.6917 H       1  LIG1        0.0660
     77 H           2.8899    5.9416    9.8035 H       1  LIG1        0.0618
@<TRIPOS>BOND
     1     1    35    1
     2     1    21    1
     3     2    36    1
     4     2    30    1
     5     3    32    1
     6     3    36    1
     7     4    27    1
     8     4    40    1
     9     5    31    1
    10     5    43    1
    11     6    34   ar
    12     7    34   ar
    13     8    45   ar
    14     9    45   ar
    15    10    11   ar
    16    10    12   ar
    17    10    13    1
    18    11    18   ar
    19    12    15   ar
    20    13    14    1
    21    14    17    1
    22    15    18   ar
    23    15    19    1
    24    16    24   ar
    25    16    21   ar
    26    16    12    1
    27    17    25    1
    28    19    22    2
    29    20    22    1
    30    20    23    1
    31    21    26   ar
    32    22    34    1
    33    23    28   ar
    34    23    27   ar
    35    24    29   ar
    36    26    31   ar
    37    27    33   ar
    38    28    30   ar
    39    29    31   ar
    40    30    32   ar
    41    32    33   ar
    42    35    37    1
    43    37    39   ar
    44    37    38   ar
    45    38    41   ar
    46    38    45    1
    47    39    42   ar
    48    41    44   ar
    49    42    44   ar
    50    13    46    1
    51    13    47    1
    52    14    48    1
    53    14    49    1
    54    17    50    1
    55    17    51    1
    56    18    52    1
    57    19    53    1
    58    20    54    1
    59    20    55    1
    60    24    56    1
    61    25    57    1
    62    25    58    1
    63    25    59    1
    64    26    60    1
    65    28    61    1
    66    29    62    1
    67    33    63    1
    68    35    64    1
    69    35    65    1
    70    36    66    1
    71    36    67    1
    72    39    68    1
    73    40    69    1
    74    40    70    1
    75    40    71    1
    76    41    72    1
    77    42    73    1
    78    43    74    1
    79    43    75    1
    80    43    76    1
    81    44    77    1
@<TRIPOS>MOLECULE
2-[[2-[2-butyl-4-[(Z)-2-carboxy-3-(6-methoxy-1,3-benzodioxol-5-yl)prop-1-enyl]pyrazol-3-yl]-5-methoxyphenoxy]methyl]benzoic acid
 77 81 0 0 0
SMALL
GASTEIGER

@<TRIPOS>ATOM
      1 O           4.1258    1.7532    5.3655 O.3     1  LIG1       -0.4866
      2 O          -2.5560   -3.6745    9.2672 O.3     1  LIG1       -0.4526
      3 O          -4.5785   -2.5973   10.0198 O.3     1  LIG1       -0.4525
      4 O          -2.5791    1.8111    9.4578 O.3     1  LIG1       -0.4947
      5 O           7.7343   -1.2877    4.7154 O.3     1  LIG1       -0.4950
      6 O           1.9984    0.3212   10.6566 O.co2   1  LIG1       -0.5449
      7 O           2.2500   -1.7237    9.6746 O.co2   1  LIG1       -0.5449
      8 O           4.5382    3.4130    2.5478 O.co2   1  LIG1       -0.5446
      9 O           2.7760    4.8158    2.3755 O.co2   1  LIG1       -0.5446
     10 N           1.1903   -0.3872    3.7810 N.ar    1  LIG1       -0.2630
     11 N          -0.0247    0.1049    4.1251 N.ar    1  LIG1       -0.1785
     12 C           2.1367   -0.2742    4.7971 C.ar    1  LIG1        0.0795
     13 C           1.1761   -1.3296    2.6766 C.3     1  LIG1        0.0422
     14 C           1.5848   -0.7954    1.3140 C.3     1  LIG1       -0.0336
     15 C           1.3584   -0.0440    5.9368 C.ar    1  LIG1        0.0207
     16 C           3.5981   -0.5054    4.6740 C.ar    1  LIG1        0.0425
     17 C           1.7965   -1.9274    0.2938 C.3     1  LIG1       -0.0542
     18 C           0.0757    0.2639    5.4445 C.ar    1  LIG1        0.0571
     19 C           1.7966   -0.2275    7.2893 C.2     1  LIG1       -0.0459
     20 C          -0.1580    0.6877    8.7194 C.3     1  LIG1        0.0029
     21 C           4.5530    0.4722    5.0432 C.ar    1  LIG1        0.1336
     22 C           1.1517   -0.0052    8.4556 C.2     1  LIG1       -0.0200
     23 C          -1.3741   -0.1870    9.0273 C.ar    1  LIG1        0.0023
     24 C           4.0849   -1.7607    4.2576 C.ar    1  LIG1       -0.0456
     25 C           0.6635   -2.9465    0.2271 C.3     1  LIG1       -0.0652
     26 C           5.9195    0.1170    5.0795 C.ar    1  LIG1        0.0224
     27 C          -2.5917    0.4374    9.4319 C.ar    1  LIG1        0.1273
     28 C          -1.3237   -1.5925    8.9347 C.ar    1  LIG1       -0.0092
     29 C           5.4567   -2.0527    4.1941 C.ar    1  LIG1       -0.0191
     30 C          -2.4444   -2.3186    9.2811 C.ar    1  LIG1        0.1667
     31 C           6.3795   -1.1189    4.6337 C.ar    1  LIG1        0.1236
     32 C          -3.5980   -1.7056    9.7029 C.ar    1  LIG1        0.1697
     33 C          -3.7083   -0.3357    9.7838 C.ar    1  LIG1        0.0258
     34 C           1.8809   -0.5120    9.7152 C.2     1  LIG1        0.0680
     35 C           5.1634    2.7463    5.2967 C.3     1  LIG1        0.1153
     36 C          -3.8852   -3.8405    9.7896 C.3     1  LIG1        0.2332
     37 C           4.7102    4.1893    5.4199 C.ar    1  LIG1       -0.0016
     38 C           4.0721    4.8944    4.3750 C.ar    1  LIG1        0.0037
     39 C           5.0492    4.8827    6.6067 C.ar    1  LIG1       -0.0547
     40 C          -3.8062    2.4755    9.7116 C.3     1  LIG1        0.0788
     41 C           3.7764    6.2617    4.5756 C.ar    1  LIG1       -0.0525
     42 C           4.7801    6.2423    6.7621 C.ar    1  LIG1       -0.0614
     43 C           8.2892   -2.3482    3.9550 C.3     1  LIG1        0.0788
     44 C           4.1375    6.9328    5.7449 C.ar    1  LIG1       -0.0611
     45 C           3.7522    4.2984    3.0120 C.2     1  LIG1        0.0720
     46 H           0.1460   -1.7089    2.6125 H       1  LIG1        0.0509
     47 H           1.7682   -2.1994    2.9548 H       1  LIG1        0.0509
     48 H           2.5091   -0.2115    1.3910 H       1  LIG1        0.0283
     49 H           0.8100   -0.1127    0.9438 H       1  LIG1        0.0283
     50 H           2.7256   -2.4584    0.5342 H       1  LIG1        0.0263
     51 H           1.9337   -1.4848   -0.6993 H       1  LIG1        0.0263
     52 H          -0.8188    0.5361    5.9822 H       1  LIG1        0.0854
     53 H           2.7759   -0.7014    7.3802 H       1  LIG1        0.0628
     54 H          -0.4122    1.3490    7.8854 H       1  LIG1        0.0363
     55 H          -0.0163    1.3670    9.5710 H       1  LIG1        0.0363
     56 H           3.4018   -2.5643    4.0122 H       1  LIG1        0.0626
     57 H           0.6024   -3.5378    1.1472 H       1  LIG1        0.0230
     58 H           0.8347   -3.6500   -0.5941 H       1  LIG1        0.0230
     59 H          -0.3025   -2.4595    0.0642 H       1  LIG1        0.0230
     60 H           6.6741    0.8040    5.4460 H       1  LIG1        0.0691
     61 H          -0.4202   -2.1099    8.6261 H       1  LIG1        0.0659
     62 H           5.7572   -3.0331    3.8444 H       1  LIG1        0.0654
     63 H          -4.6387    0.0967   10.1243 H       1  LIG1        0.0692
     64 H           5.7681    2.6442    4.3888 H       1  LIG1        0.0748
     65 H           5.8412    2.5654    6.1423 H       1  LIG1        0.0748
     66 H          -3.8252   -4.3880   10.7380 H       1  LIG1        0.1166
     67 H          -4.4693   -4.4373    9.0802 H       1  LIG1        0.1166
     68 H           5.5528    4.3574    7.4167 H       1  LIG1        0.0622
     69 H          -3.6329    3.5507    9.6068 H       1  LIG1        0.0660
     70 H          -4.1473    2.2924   10.7356 H       1  LIG1        0.0660
     71 H          -4.5720    2.1911    8.9825 H       1  LIG1        0.0660
     72 H           3.2760    6.8078    3.7771 H       1  LIG1        0.0624
     73 H           5.0758    6.7537    7.6720 H       1  LIG1        0.0618
     74 H           9.3771   -2.3039    4.0714 H       1  LIG1        0.0660
     75 H           8.0626   -2.2306    2.8906 H       1  LIG1        0.0660
     76 H           7.9595   -3.3227    4.3272 H       1  LIG1        0.0660
     77 H           3.9186    7.9902    5.8489 H       1  LIG1        0.0618
@<TRIPOS>BOND
     1     1    35    1
     2     1    21    1
     3     2    36    1
     4     2    30    1
     5     3    32    1
     6     3    36    1
     7     4    27    1
     8     4    40    1
     9     5    31    1
    10     5    43    1
    11     6    34   ar
    12     7    34   ar
    13     8    45   ar
    14     9    45   ar
    15    10    11   ar
    16    10    12   ar
    17    10    13    1
    18    11    18   ar
    19    12    15   ar
    20    13    14    1
    21    14    17    1
    22    15    18   ar
    23    15    19    1
    24    16    24   ar
    25    16    21   ar
    26    16    12    1
    27    17    25    1
    28    19    22    2
    29    20    22    1
    30    20    23    1
    31    21    26   ar
    32    22    34    1
    33    23    28   ar
    34    23    27   ar
    35    24    29   ar
    36    26    31   ar
    37    27    33   ar
    38    28    30   ar
    39    29    31   ar
    40    30    32   ar
    41    32    33   ar
    42    35    37    1
    43    37    39   ar
    44    37    38   ar
    45    38    41   ar
    46    38    45    1
    47    39    42   ar
    48    41    44   ar
    49    42    44   ar
    50    13    46    1
    51    13    47    1
    52    14    48    1
    53    14    49    1
    54    17    50    1
    55    17    51    1
    56    18    52    1
    57    19    53    1
    58    20    54    1
    59    20    55    1
    60    24    56    1
    61    25    57    1
    62    25    58    1
    63    25    59    1
    64    26    60    1
    65    28    61    1
    66    29    62    1
    67    33    63    1
    68    35    64    1
    69    35    65    1
    70    36    66    1
    71    36    67    1
    72    39    68    1
    73    40    69    1
    74    40    70    1
    75    40    71    1
    76    41    72    1
    77    42    73    1
    78    43    74    1
    79    43    75    1
    80    43    76    1
    81    44    77    1
@<TRIPOS>MOLECULE
2-[[2-[2-butyl-4-[(Z)-2-carboxy-3-(6-methoxy-1,3-benzodioxol-5-yl)prop-1-enyl]pyrazol-3-yl]-5-methoxyphenoxy]methyl]benzoic acid
 77 81 0 0 0
SMALL
GASTEIGER

@<TRIPOS>ATOM
      1 O           4.5919    1.6377    5.3868 O.3     1  LIG1       -0.4866
      2 O          -0.6976   -4.7772   11.7551 O.3     1  LIG1       -0.4526
      3 O          -0.8100   -6.6997   10.3103 O.3     1  LIG1       -0.4525
      4 O          -0.6345   -3.9038    6.3398 O.3     1  LIG1       -0.4947
      5 O           7.9670   -1.6808    4.7294 O.3     1  LIG1       -0.4950
      6 O           0.5729   -0.0156   10.3528 O.co2   1  LIG1       -0.5449
      7 O           2.4712   -1.2415    9.9932 O.co2   1  LIG1       -0.5449
      8 O           8.0377    3.3323    6.9019 O.co2   1  LIG1       -0.5446
      9 O           8.2913    5.4590    7.6021 O.co2   1  LIG1       -0.5446
     10 N           1.7081   -0.2462    3.7148 N.ar    1  LIG1       -0.2630
     11 N           0.4562    0.2200    3.9267 N.ar    1  LIG1       -0.1785
     12 C           2.4887   -0.2834    4.8634 C.ar    1  LIG1        0.0795
     13 C           2.0470   -0.8182    2.4183 C.3     1  LIG1        0.0422
     14 C           0.9042   -0.8939    1.3893 C.3     1  LIG1       -0.0336
     15 C           1.5668   -0.1405    5.8903 C.ar    1  LIG1        0.0207
     16 C           3.9222   -0.6212    4.8834 C.ar    1  LIG1        0.0425
     17 C           1.0565   -2.0403    0.3838 C.3     1  LIG1       -0.0542
     18 C           0.3702    0.2542    5.2574 C.ar    1  LIG1        0.0571
     19 C           1.7932   -0.2937    7.2920 C.2     1  LIG1       -0.0459
     20 C          -0.3616   -1.5556    7.9845 C.3     1  LIG1        0.0029
     21 C           4.9431    0.3189    5.1561 C.ar    1  LIG1        0.1336
     22 C           0.9677   -0.8706    8.1955 C.2     1  LIG1       -0.0200
     23 C          -0.4926   -2.9742    8.5388 C.ar    1  LIG1        0.0023
     24 C           4.2817   -1.9570    4.6152 C.ar    1  LIG1       -0.0456
     25 C           2.3527   -2.0096   -0.4063 C.3     1  LIG1       -0.0652
     26 C           6.2814   -0.1205    5.1265 C.ar    1  LIG1        0.0224
     27 C          -0.6243   -4.1116    7.6981 C.ar    1  LIG1        0.1273
     28 C          -0.5430   -3.1610    9.9373 C.ar    1  LIG1       -0.0092
     29 C           5.6180   -2.3547    4.5353 C.ar    1  LIG1       -0.0191
     30 C          -0.6496   -4.4374   10.4438 C.ar    1  LIG1        0.1667
     31 C           6.6228   -1.4293    4.7761 C.ar    1  LIG1        0.1236
     32 C          -0.7224   -5.5290    9.6177 C.ar    1  LIG1        0.1697
     33 C          -0.7163   -5.4039    8.2458 C.ar    1  LIG1        0.0258
     34 C           1.3919   -0.6782    9.6538 C.2     1  LIG1        0.0680
     35 C           5.6397    2.4862    5.9211 C.3     1  LIG1        0.1153
     36 C          -0.6961   -6.2088   11.6637 C.3     1  LIG1        0.2332
     37 C           5.3418    3.9802    5.8951 C.ar    1  LIG1       -0.0016
     38 C           6.2949    4.9182    6.3907 C.ar    1  LIG1        0.0037
     39 C           4.1579    4.4576    5.3022 C.ar    1  LIG1       -0.0547
     40 C          -1.5411   -4.7358    5.6230 C.3     1  LIG1        0.0788
     41 C           6.0097    6.2947    6.2657 C.ar    1  LIG1       -0.0525
     42 C           3.9128    5.8269    5.1806 C.ar    1  LIG1       -0.0614
     43 C           8.3739   -2.7831    3.9352 C.3     1  LIG1        0.0788
     44 C           4.8389    6.7460    5.6590 C.ar    1  LIG1       -0.0611
     45 C           7.6371    4.5310    7.0231 C.2     1  LIG1        0.0720
     46 H           2.3898   -1.8372    2.6230 H       1  LIG1        0.0509
     47 H           2.8852   -0.2375    2.0184 H       1  LIG1        0.0509
     48 H           0.8329    0.0630    0.8579 H       1  LIG1        0.0283
     49 H          -0.0620   -1.0471    1.8847 H       1  LIG1        0.0283
     50 H           0.2131   -2.0038   -0.3167 H       1  LIG1        0.0263
     51 H           0.9807   -2.9991    0.9115 H       1  LIG1        0.0263
     52 H          -0.5651    0.5439    5.7180 H       1  LIG1        0.0854
     53 H           2.7294    0.1276    7.6633 H       1  LIG1        0.0628
     54 H          -0.6166   -1.5769    6.9229 H       1  LIG1        0.0363
     55 H          -1.1543   -0.9459    8.4419 H       1  LIG1        0.0363
     56 H           3.5045   -2.7047    4.4716 H       1  LIG1        0.0626
     57 H           2.4703   -1.0580   -0.9327 H       1  LIG1        0.0230
     58 H           2.3542   -2.8132   -1.1502 H       1  LIG1        0.0230
     59 H           3.2199   -2.1594    0.2437 H       1  LIG1        0.0230
     60 H           7.1120    0.5413    5.3582 H       1  LIG1        0.0691
     61 H          -0.4805   -2.3154   10.6199 H       1  LIG1        0.0659
     62 H           5.8394   -3.3924    4.3159 H       1  LIG1        0.0654
     63 H          -0.7644   -6.2911    7.6290 H       1  LIG1        0.0692
     64 H           6.5173    2.3941    5.2773 H       1  LIG1        0.0748
     65 H           5.8283    2.1695    6.9530 H       1  LIG1        0.0748
     66 H          -1.5403   -6.5968   12.2449 H       1  LIG1        0.1166
     67 H           0.2333   -6.5940   12.1005 H       1  LIG1        0.1166
     68 H           3.4226    3.7532    4.9184 H       1  LIG1        0.0622
     69 H          -1.7198   -4.2753    4.6468 H       1  LIG1        0.0660
     70 H          -2.5084   -4.8229    6.1315 H       1  LIG1        0.0660
     71 H          -1.1049   -5.7245    5.4488 H       1  LIG1        0.0660
     72 H           6.7299    7.0210    6.6388 H       1  LIG1        0.0624
     73 H           2.9986    6.1706    4.7066 H       1  LIG1        0.0618
     74 H           9.4629   -2.7363    3.8345 H       1  LIG1        0.0660
     75 H           7.9462   -2.7319    2.9272 H       1  LIG1        0.0660
     76 H           8.1243   -3.7297    4.4224 H       1  LIG1        0.0660
     77 H           4.6600    7.8128    5.5647 H       1  LIG1        0.0618
@<TRIPOS>BOND
     1     1    35    1
     2     1    21    1
     3     2    36    1
     4     2    30    1
     5     3    32    1
     6     3    36    1
     7     4    27    1
     8     4    40    1
     9     5    31    1
    10     5    43    1
    11     6    34   ar
    12     7    34   ar
    13     8    45   ar
    14     9    45   ar
    15    10    11   ar
    16    10    12   ar
    17    10    13    1
    18    11    18   ar
    19    12    15   ar
    20    13    14    1
    21    14    17    1
    22    15    18   ar
    23    15    19    1
    24    16    24   ar
    25    16    21   ar
    26    16    12    1
    27    17    25    1
    28    19    22    2
    29    20    22    1
    30    20    23    1
    31    21    26   ar
    32    22    34    1
    33    23    28   ar
    34    23    27   ar
    35    24    29   ar
    36    26    31   ar
    37    27    33   ar
    38    28    30   ar
    39    29    31   ar
    40    30    32   ar
    41    32    33   ar
    42    35    37    1
    43    37    39   ar
    44    37    38   ar
    45    38    41   ar
    46    38    45    1
    47    39    42   ar
    48    41    44   ar
    49    42    44   ar
    50    13    46    1
    51    13    47    1
    52    14    48    1
    53    14    49    1
    54    17    50    1
    55    17    51    1
    56    18    52    1
    57    19    53    1
    58    20    54    1
    59    20    55    1
    60    24    56    1
    61    25    57    1
    62    25    58    1
    63    25    59    1
    64    26    60    1
    65    28    61    1
    66    29    62    1
    67    33    63    1
    68    35    64    1
    69    35    65    1
    70    36    66    1
    71    36    67    1
    72    39    68    1
    73    40    69    1
    74    40    70    1
    75    40    71    1
    76    41    72    1
    77    42    73    1
    78    43    74    1
    79    43    75    1
    80    43    76    1
    81    44    77    1
@<TRIPOS>MOLECULE
2-[[2-[2-butyl-4-[(Z)-2-carboxy-3-(6-methoxy-1,3-benzodioxol-5-yl)prop-1-enyl]pyrazol-3-yl]-5-methoxyphenoxy]methyl]benzoic acid
 77 81 0 0 0
SMALL
GASTEIGER

@<TRIPOS>ATOM
      1 O           3.7275    1.2343    6.3043 O.3     1  LIG1       -0.4866
      2 O          -0.8150   -5.2771   12.0087 O.3     1  LIG1       -0.4526
      3 O          -0.8749   -7.1284   10.4644 O.3     1  LIG1       -0.4525
      4 O          -0.7487   -4.0990    6.6445 O.3     1  LIG1       -0.4947
      5 O           7.7425   -0.5160    4.3710 O.3     1  LIG1       -0.4950
      6 O           0.8269   -0.7234   10.7058 O.co2   1  LIG1       -0.5449
      7 O           2.6852   -1.7601    9.8785 O.co2   1  LIG1       -0.5449
      8 O           1.0917    4.1950    4.7267 O.co2   1  LIG1       -0.5446
      9 O          -0.3104    4.9222    6.3473 O.co2   1  LIG1       -0.5446
     10 N           1.2285   -0.9188    3.8075 N.ar    1  LIG1       -0.2630
     11 N          -0.0596   -0.6654    4.1072 N.ar    1  LIG1       -0.1785
     12 C           2.0871   -0.8031    4.8974 C.ar    1  LIG1        0.0795
     13 C           1.5465   -1.3687    2.4593 C.3     1  LIG1        0.0422
     14 C           0.3423   -1.7242    1.5684 C.3     1  LIG1       -0.0336
     15 C           1.2238   -0.7876    5.9935 C.ar    1  LIG1        0.0207
     16 C           3.5592   -0.6895    4.8047 C.ar    1  LIG1        0.0425
     17 C           0.6780   -2.7296    0.4622 C.3     1  LIG1       -0.0542
     18 C          -0.0492   -0.5563    5.4344 C.ar    1  LIG1        0.0571
     19 C           1.5850   -0.8770    7.3768 C.2     1  LIG1       -0.0459
     20 C          -0.5519   -1.8848    8.4169 C.3     1  LIG1        0.0029
     21 C           4.2770    0.3683    5.3964 C.ar    1  LIG1        0.1336
     22 C           0.8518   -1.3393    8.4137 C.2     1  LIG1       -0.0200
     23 C          -0.6779   -3.3279    8.8864 C.ar    1  LIG1        0.0023
     24 C           4.3039   -1.6532    4.1034 C.ar    1  LIG1       -0.0456
     25 C           1.7249   -2.2397   -0.5220 C.3     1  LIG1       -0.0652
     26 C           5.6762    0.4560    5.2768 C.ar    1  LIG1        0.0224
     27 C          -0.7507   -4.4185    7.9782 C.ar    1  LIG1        0.1273
     28 C          -0.7165   -3.5733   10.2742 C.ar    1  LIG1       -0.0092
     29 C           5.6916   -1.5431    3.9523 C.ar    1  LIG1       -0.0191
     30 C          -0.7852   -4.8720   10.7114 C.ar    1  LIG1        0.1667
     31 C           6.3854   -0.4971    4.5508 C.ar    1  LIG1        0.1236
     32 C          -0.8264   -5.9232    9.8297 C.ar    1  LIG1        0.1697
     33 C          -0.8184   -5.7331    8.4631 C.ar    1  LIG1        0.0258
     34 C           1.5282   -1.2511    9.7941 C.2     1  LIG1        0.0680
     35 C           3.0333    2.3701    5.7553 C.3     1  LIG1        0.1153
     36 C          -0.7633   -6.7020   11.8391 C.3     1  LIG1        0.2332
     37 C           3.0070    3.4560    6.8278 C.ar    1  LIG1       -0.0016
     38 C           1.9326    4.3698    6.9503 C.ar    1  LIG1        0.0037
     39 C           4.0829    3.5564    7.7386 C.ar    1  LIG1       -0.0547
     40 C          -1.0888   -5.1224    5.7232 C.3     1  LIG1        0.0788
     41 C           1.9206    5.2560    8.0507 C.ar    1  LIG1       -0.0525
     42 C           4.0687    4.4713    8.7922 C.ar    1  LIG1       -0.0614
     43 C           8.4977    0.1121    5.4018 C.3     1  LIG1        0.0788
     44 C           2.9732    5.3052    8.9639 C.ar    1  LIG1       -0.0611
     45 C           0.8086    4.4764    5.9350 C.2     1  LIG1        0.0720
     46 H           2.1355   -2.2800    2.5778 H       1  LIG1        0.0509
     47 H           2.1646   -0.5947    1.9929 H       1  LIG1        0.0509
     48 H          -0.0747   -0.8083    1.1328 H       1  LIG1        0.0283
     49 H          -0.4560   -2.1797    2.1676 H       1  LIG1        0.0283
     50 H          -0.2419   -2.9638   -0.0872 H       1  LIG1        0.0263
     51 H           1.0186   -3.6699    0.9131 H       1  LIG1        0.0263
     52 H          -0.9768   -0.3241    5.9376 H       1  LIG1        0.0854
     53 H           2.5967   -0.5518    7.6203 H       1  LIG1        0.0628
     54 H          -1.0258   -1.8176    7.4377 H       1  LIG1        0.0363
     55 H          -1.1860   -1.2508    9.0514 H       1  LIG1        0.0363
     56 H           3.8242   -2.5375    3.7008 H       1  LIG1        0.0626
     57 H           1.4115   -1.3041   -0.9942 H       1  LIG1        0.0230
     58 H           1.8720   -2.9854   -1.3105 H       1  LIG1        0.0230
     59 H           2.6899   -2.0787   -0.0327 H       1  LIG1        0.0230
     60 H           6.1767    1.2719    5.7862 H       1  LIG1        0.0691
     61 H          -0.6607   -2.7521   10.9856 H       1  LIG1        0.0659
     62 H           6.2349   -2.3057    3.4019 H       1  LIG1        0.0654
     63 H          -0.8466   -6.5956    7.8128 H       1  LIG1        0.0692
     64 H           2.0216    2.0440    5.5098 H       1  LIG1        0.0748
     65 H           3.5457    2.7537    4.8642 H       1  LIG1        0.0748
     66 H          -1.5840   -7.1501   12.4101 H       1  LIG1        0.1166
     67 H           0.1865   -7.0704   12.2456 H       1  LIG1        0.1166
     68 H           4.9316    2.8833    7.6489 H       1  LIG1        0.0622
     69 H          -1.1638   -4.6705    4.7292 H       1  LIG1        0.0660
     70 H          -2.0630   -5.5646    5.9590 H       1  LIG1        0.0660
     71 H          -0.3091   -5.8896    5.6806 H       1  LIG1        0.0660
     72 H           1.0645    5.9165    8.1805 H       1  LIG1        0.0624
     73 H           4.8973    4.5034    9.4916 H       1  LIG1        0.0618
     74 H           9.5478   -0.1620    5.2574 H       1  LIG1        0.0660
     75 H           8.1969   -0.2423    6.3938 H       1  LIG1        0.0660
     76 H           8.4270    1.2018    5.3316 H       1  LIG1        0.0660
     77 H           2.9301    5.9928    9.8014 H       1  LIG1        0.0618
@<TRIPOS>BOND
     1     1    35    1
     2     1    21    1
     3     2    36    1
     4     2    30    1
     5     3    32    1
     6     3    36    1
     7     4    27    1
     8     4    40    1
     9     5    31    1
    10     5    43    1
    11     6    34   ar
    12     7    34   ar
    13     8    45   ar
    14     9    45   ar
    15    10    11   ar
    16    10    12   ar
    17    10    13    1
    18    11    18   ar
    19    12    15   ar
    20    13    14    1
    21    14    17    1
    22    15    18   ar
    23    15    19    1
    24    16    24   ar
    25    16    21   ar
    26    16    12    1
    27    17    25    1
    28    19    22    2
    29    20    22    1
    30    20    23    1
    31    21    26   ar
    32    22    34    1
    33    23    28   ar
    34    23    27   ar
    35    24    29   ar
    36    26    31   ar
    37    27    33   ar
    38    28    30   ar
    39    29    31   ar
    40    30    32   ar
    41    32    33   ar
    42    35    37    1
    43    37    39   ar
    44    37    38   ar
    45    38    41   ar
    46    38    45    1
    47    39    42   ar
    48    41    44   ar
    49    42    44   ar
    50    13    46    1
    51    13    47    1
    52    14    48    1
    53    14    49    1
    54    17    50    1
    55    17    51    1
    56    18    52    1
    57    19    53    1
    58    20    54    1
    59    20    55    1
    60    24    56    1
    61    25    57    1
    62    25    58    1
    63    25    59    1
    64    26    60    1
    65    28    61    1
    66    29    62    1
    67    33    63    1
    68    35    64    1
    69    35    65    1
    70    36    66    1
    71    36    67    1
    72    39    68    1
    73    40    69    1
    74    40    70    1
    75    40    71    1
    76    41    72    1
    77    42    73    1
    78    43    74    1
    79    43    75    1
    80    43    76    1
    81    44    77    1
@<TRIPOS>MOLECULE
2-[[2-[2-butyl-4-[(Z)-2-carboxy-3-(6-methoxy-1,3-benzodioxol-5-yl)prop-1-enyl]pyrazol-3-yl]-5-methoxyphenoxy]methyl]benzoic acid
 77 81 0 0 0
SMALL
GASTEIGER

@<TRIPOS>ATOM
      1 O           3.7860    1.2960    6.2940 O.3     1  LIG1       -0.4866
      2 O          -0.8128   -5.2778   11.9836 O.3     1  LIG1       -0.4526
      3 O          -0.8963   -7.1340   10.4471 O.3     1  LIG1       -0.4525
      4 O          -0.8024   -4.1512    6.6133 O.3     1  LIG1       -0.4947
      5 O           7.6787   -0.2853    4.2669 O.3     1  LIG1       -0.4950
      6 O           2.6347   -1.7842    9.8838 O.co2   1  LIG1       -0.5449
      7 O           0.7771   -0.7350   10.6951 O.co2   1  LIG1       -0.5449
      8 O           1.1015    4.2344    4.7548 O.co2   1  LIG1       -0.5446
      9 O          -0.3019    4.9233    6.3896 O.co2   1  LIG1       -0.5446
     10 N           1.1921   -0.6862    3.8176 N.ar    1  LIG1       -0.2630
     11 N          -0.0938   -0.4703    4.1381 N.ar    1  LIG1       -0.1785
     12 C           2.0497   -0.6789    4.9122 C.ar    1  LIG1        0.0795
     13 C           1.5312   -1.0148    2.4454 C.3     1  LIG1        0.0422
     14 C           0.4631   -0.8565    1.3514 C.3     1  LIG1       -0.0336
     15 C           1.1946   -0.6887    6.0108 C.ar    1  LIG1        0.0207
     16 C           3.5201   -0.6194    4.8044 C.ar    1  LIG1        0.0425
     17 C          -0.8444   -1.6503    1.4929 C.3     1  LIG1       -0.0542
     18 C          -0.0788   -0.4230    5.4680 C.ar    1  LIG1        0.0571
     19 C           1.5588   -0.8254    7.3868 C.2     1  LIG1       -0.0459
     20 C          -0.5725   -1.8952    8.3745 C.3     1  LIG1        0.0029
     21 C           4.2817    0.4180    5.3698 C.ar    1  LIG1        0.1336
     22 C           0.8246   -1.3326    8.4022 C.2     1  LIG1       -0.0200
     23 C          -0.7033   -3.3344    8.8546 C.ar    1  LIG1        0.0023
     24 C           4.2118   -1.6070    4.0824 C.ar    1  LIG1       -0.0456
     25 C          -0.6915   -3.0813    1.9829 C.3     1  LIG1       -0.0652
     26 C           5.6700    0.4774    5.1759 C.ar    1  LIG1        0.0224
     27 C          -0.8063   -4.4285    7.9573 C.ar    1  LIG1        0.1273
     28 C          -0.7319   -3.5770   10.2419 C.ar    1  LIG1       -0.0092
     29 C           5.5961   -1.5313    3.8678 C.ar    1  LIG1       -0.0191
     30 C          -0.8021   -4.8763   10.6846 C.ar    1  LIG1        0.1667
     31 C           6.3296   -0.4744    4.3995 C.ar    1  LIG1        0.1236
     32 C          -0.8573   -5.9311    9.8073 C.ar    1  LIG1        0.1697
     33 C          -0.8670   -5.7440    8.4420 C.ar    1  LIG1        0.0258
     34 C           1.4866   -1.2631    9.7899 C.2     1  LIG1        0.0680
     35 C           3.0667    2.4242    5.7617 C.3     1  LIG1        0.1153
     36 C          -0.7548   -6.7022   11.8174 C.3     1  LIG1        0.2332
     37 C           3.0389    3.5035    6.8383 C.ar    1  LIG1       -0.0016
     38 C           1.9540    4.4027    6.9743 C.ar    1  LIG1        0.0037
     39 C           4.1223    3.6114    7.7390 C.ar    1  LIG1       -0.0547
     40 C          -1.7000   -4.9396    5.8412 C.3     1  LIG1        0.0788
     41 C           1.9405    5.2814    8.0793 C.ar    1  LIG1       -0.0525
     42 C           4.1053    4.5189    8.7981 C.ar    1  LIG1       -0.0614
     43 C           8.3513   -1.1197    3.3347 C.3     1  LIG1        0.0788
     44 C           3.0006    5.3378    8.9840 C.ar    1  LIG1       -0.0611
     45 C           0.8230    4.5007    5.9666 C.2     1  LIG1        0.0720
     46 H           1.8649   -2.0584    2.4531 H       1  LIG1        0.0509
     47 H           2.3883   -0.3879    2.1736 H       1  LIG1        0.0509
     48 H           0.9307   -1.1609    0.4049 H       1  LIG1        0.0283
     49 H           0.2141    0.2056    1.2371 H       1  LIG1        0.0283
     50 H          -1.3392   -1.6674    0.5137 H       1  LIG1        0.0263
     51 H          -1.5350   -1.1178    2.1557 H       1  LIG1        0.0263
     52 H          -1.0022   -0.2080    5.9861 H       1  LIG1        0.0854
     53 H           2.5642   -0.4888    7.6444 H       1  LIG1        0.0628
     54 H          -1.0145   -1.8448    7.3787 H       1  LIG1        0.0363
     55 H          -1.2311   -1.2621    8.9848 H       1  LIG1        0.0363
     56 H           3.6763   -2.4689    3.6942 H       1  LIG1        0.0626
     57 H          -0.0257   -3.6548    1.3320 H       1  LIG1        0.0230
     58 H          -1.6685   -3.5767    1.9916 H       1  LIG1        0.0230
     59 H          -0.3007   -3.1216    3.0038 H       1  LIG1        0.0230
     60 H           6.2373    1.2696    5.6579 H       1  LIG1        0.0691
     61 H          -0.6654   -2.7571   10.9535 H       1  LIG1        0.0659
     62 H           6.0665   -2.3268    3.3017 H       1  LIG1        0.0654
     63 H          -0.8924   -6.5993    7.7814 H       1  LIG1        0.0692
     64 H           2.0535    2.0893    5.5300 H       1  LIG1        0.0748
     65 H           3.5596    2.8184    4.8654 H       1  LIG1        0.0748
     66 H          -1.5589   -7.1541   12.4086 H       1  LIG1        0.1166
     67 H           0.2068   -7.0634   12.2022 H       1  LIG1        0.1166
     68 H           4.9788    2.9492    7.6356 H       1  LIG1        0.0622
     69 H          -1.8678   -4.4260    4.8901 H       1  LIG1        0.0660
     70 H          -2.6726   -5.0547    6.3336 H       1  LIG1        0.0660
     71 H          -1.2620   -5.9174    5.6180 H       1  LIG1        0.0660
     72 H           1.0777    5.9310    8.2205 H       1  LIG1        0.0624
     73 H           4.9403    4.5567    9.4900 H       1  LIG1        0.0618
     74 H           9.3941   -0.7907    3.2828 H       1  LIG1        0.0660
     75 H           7.9226   -1.0209    2.3315 H       1  LIG1        0.0660
     76 H           8.3501   -2.1636    3.6643 H       1  LIG1        0.0660
     77 H           2.9564    6.0190    9.8268 H       1  LIG1        0.0618
@<TRIPOS>BOND
     1     1    35    1
     2     1    21    1
     3     2    36    1
     4     2    30    1
     5     3    32    1
     6     3    36    1
     7     4    27    1
     8     4    40    1
     9     5    31    1
    10     5    43    1
    11     6    34   ar
    12     7    34   ar
    13     8    45   ar
    14     9    45   ar
    15    10    11   ar
    16    10    12   ar
    17    10    13    1
    18    11    18   ar
    19    12    15   ar
    20    13    14    1
    21    14    17    1
    22    15    18   ar
    23    15    19    1
    24    16    24   ar
    25    16    21   ar
    26    16    12    1
    27    17    25    1
    28    19    22    2
    29    20    22    1
    30    20    23    1
    31    21    26   ar
    32    22    34    1
    33    23    28   ar
    34    23    27   ar
    35    24    29   ar
    36    26    31   ar
    37    27    33   ar
    38    28    30   ar
    39    29    31   ar
    40    30    32   ar
    41    32    33   ar
    42    35    37    1
    43    37    39   ar
    44    37    38   ar
    45    38    41   ar
    46    38    45    1
    47    39    42   ar
    48    41    44   ar
    49    42    44   ar
    50    13    46    1
    51    13    47    1
    52    14    48    1
    53    14    49    1
    54    17    50    1
    55    17    51    1
    56    18    52    1
    57    19    53    1
    58    20    54    1
    59    20    55    1
    60    24    56    1
    61    25    57    1
    62    25    58    1
    63    25    59    1
    64    26    60    1
    65    28    61    1
    66    29    62    1
    67    33    63    1
    68    35    64    1
    69    35    65    1
    70    36    66    1
    71    36    67    1
    72    39    68    1
    73    40    69    1
    74    40    70    1
    75    40    71    1
    76    41    72    1
    77    42    73    1
    78    43    74    1
    79    43    75    1
    80    43    76    1
    81    44    77    1
@<TRIPOS>MOLECULE
2-[[2-[2-butyl-4-[(Z)-2-carboxy-3-(6-methoxy-1,3-benzodioxol-5-yl)prop-1-enyl]pyrazol-3-yl]-5-methoxyphenoxy]methyl]benzoic acid
 77 81 0 0 0
SMALL
GASTEIGER

@<TRIPOS>ATOM
      1 O           3.8237    1.2218    6.2682 O.3     1  LIG1       -0.4866
      2 O          -0.7895   -5.2589   11.9882 O.3     1  LIG1       -0.4526
      3 O          -0.8711   -7.1235   10.4607 O.3     1  LIG1       -0.4525
      4 O          -0.8333   -4.1556    6.6134 O.3     1  LIG1       -0.4947
      5 O           7.7543   -0.6057    4.5645 O.3     1  LIG1       -0.4950
      6 O           0.7470   -0.6769   10.6279 O.co2   1  LIG1       -0.5449
      7 O           2.5963   -1.7477    9.8223 O.co2   1  LIG1       -0.5449
      8 O           1.0118    4.0382    4.7365 O.co2   1  LIG1       -0.5446
      9 O          -0.3506    4.8107    6.3663 O.co2   1  LIG1       -0.5446
     10 N           1.3020   -0.8821    3.7213 N.ar    1  LIG1       -0.2630
     11 N          -0.0193   -0.8006    3.9656 N.ar    1  LIG1       -0.1785
     12 C           2.0898   -0.7969    4.8655 C.ar    1  LIG1        0.0795
     13 C           1.7511   -1.2483    2.3863 C.3     1  LIG1        0.0422
     14 C           0.7619   -1.0893    1.2237 C.3     1  LIG1       -0.0336
     15 C           1.1782   -0.8050    5.9178 C.ar    1  LIG1        0.0207
     16 C           3.5618   -0.7491    4.8396 C.ar    1  LIG1        0.0425
     17 C           0.7203    0.3159    0.6231 C.3     1  LIG1       -0.0542
     18 C          -0.0797   -0.6773    5.2935 C.ar    1  LIG1        0.0571
     19 C           1.5037   -0.8682    7.3113 C.2     1  LIG1       -0.0459
     20 C          -0.6238   -1.8941    8.3577 C.3     1  LIG1        0.0029
     21 C           4.3181    0.2993    5.3893 C.ar    1  LIG1        0.1336
     22 C           0.7703   -1.3311    8.3468 C.2     1  LIG1       -0.0200
     23 C          -0.7334   -3.3303    8.8484 C.ar    1  LIG1        0.0023
     24 C           4.2623   -1.8051    4.2280 C.ar    1  LIG1       -0.0456
     25 C           1.9841    0.6621   -0.1540 C.3     1  LIG1       -0.0652
     26 C           5.7182    0.2998    5.2704 C.ar    1  LIG1        0.0224
     27 C          -0.8291   -4.4296    7.9578 C.ar    1  LIG1        0.1273
     28 C          -0.7416   -3.5659   10.2379 C.ar    1  LIG1       -0.0092
     29 C           5.6558   -1.7928    4.0992 C.ar    1  LIG1       -0.0191
     30 C          -0.7945   -4.8641   10.6870 C.ar    1  LIG1        0.1667
     31 C           6.3920   -0.7317    4.6144 C.ar    1  LIG1        0.1236
     32 C          -0.8489   -5.9235    9.8150 C.ar    1  LIG1        0.1697
     33 C          -0.8724   -5.7428    8.4486 C.ar    1  LIG1        0.0258
     34 C           1.4483   -1.2258    9.7262 C.2     1  LIG1        0.0680
     35 C           3.0482    2.3075    5.7278 C.3     1  LIG1        0.1153
     36 C          -0.7278   -6.6846   11.8283 C.3     1  LIG1        0.2332
     37 C           3.0151    3.4171    6.7824 C.ar    1  LIG1       -0.0016
     38 C           1.9175    4.3033    6.9187 C.ar    1  LIG1        0.0037
     39 C           4.1153    3.5637    7.6604 C.ar    1  LIG1       -0.0547
     40 C          -1.7139   -4.9621    5.8418 C.3     1  LIG1        0.0788
     41 C           1.9099    5.2003    8.0066 C.ar    1  LIG1       -0.0525
     42 C           4.0984    4.4904    8.7041 C.ar    1  LIG1       -0.0614
     43 C           8.4787   -1.7337    4.0925 C.3     1  LIG1        0.0788
     44 C           2.9846    5.2929    8.8917 C.ar    1  LIG1       -0.0611
     45 C           0.7601    4.3602    5.9331 C.2     1  LIG1        0.0720
     46 H           1.9887   -2.3168    2.4580 H       1  LIG1        0.0509
     47 H           2.6780   -0.7060    2.1834 H       1  LIG1        0.0509
     48 H          -0.2494   -1.3840    1.5262 H       1  LIG1        0.0283
     49 H           1.0513   -1.7920    0.4309 H       1  LIG1        0.0283
     50 H           0.5439    1.0636    1.4034 H       1  LIG1        0.0263
     51 H          -0.1283    0.3669   -0.0699 H       1  LIG1        0.0263
     52 H          -1.0466   -0.5226    5.7481 H       1  LIG1        0.0854
     53 H           2.5052   -0.5181    7.5679 H       1  LIG1        0.0628
     54 H          -1.0959   -1.8429    7.3769 H       1  LIG1        0.0363
     55 H          -1.2659   -1.2604    8.9849 H       1  LIG1        0.0363
     56 H           3.7202   -2.6743    3.8653 H       1  LIG1        0.0626
     57 H           2.8488    0.7659    0.5073 H       1  LIG1        0.0230
     58 H           1.8540    1.6113   -0.6828 H       1  LIG1        0.0230
     59 H           2.2126   -0.1084   -0.8984 H       1  LIG1        0.0230
     60 H           6.2857    1.0993    5.7401 H       1  LIG1        0.0691
     61 H          -0.6724   -2.7412   10.9430 H       1  LIG1        0.0659
     62 H           6.1264   -2.6363    3.6083 H       1  LIG1        0.0654
     63 H          -0.8922   -6.6021    7.7932 H       1  LIG1        0.0692
     64 H           2.0404    1.9375    5.5401 H       1  LIG1        0.0748
     65 H           3.5033    2.6913    4.8054 H       1  LIG1        0.0748
     66 H          -1.5292   -7.1359   12.4239 H       1  LIG1        0.1166
     67 H           0.2356   -7.0415   12.2132 H       1  LIG1        0.1166
     68 H           4.9820    2.9144    7.5594 H       1  LIG1        0.0622
     69 H          -1.8826   -4.4576    4.8859 H       1  LIG1        0.0660
     70 H          -2.6876   -5.0863    6.3297 H       1  LIG1        0.0660
     71 H          -1.2614   -5.9356    5.6285 H       1  LIG1        0.0660
     72 H           1.0416    5.8381    8.1488 H       1  LIG1        0.0624
     73 H           4.9429    4.5547    9.3822 H       1  LIG1        0.0618
     74 H           9.5464   -1.5134    4.1924 H       1  LIG1        0.0660
     75 H           8.2764   -1.9156    3.0318 H       1  LIG1        0.0660
     76 H           8.2676   -2.6253    4.6930 H       1  LIG1        0.0660
     77 H           2.9404    5.9895    9.7227 H       1  LIG1        0.0618
@<TRIPOS>BOND
     1     1    35    1
     2     1    21    1
     3     2    36    1
     4     2    30    1
     5     3    32    1
     6     3    36    1
     7     4    27    1
     8     4    40    1
     9     5    31    1
    10     5    43    1
    11     6    34   ar
    12     7    34   ar
    13     8    45   ar
    14     9    45   ar
    15    10    11   ar
    16    10    12   ar
    17    10    13    1
    18    11    18   ar
    19    12    15   ar
    20    13    14    1
    21    14    17    1
    22    15    18   ar
    23    15    19    1
    24    16    24   ar
    25    16    21   ar
    26    16    12    1
    27    17    25    1
    28    19    22    2
    29    20    22    1
    30    20    23    1
    31    21    26   ar
    32    22    34    1
    33    23    28   ar
    34    23    27   ar
    35    24    29   ar
    36    26    31   ar
    37    27    33   ar
    38    28    30   ar
    39    29    31   ar
    40    30    32   ar
    41    32    33   ar
    42    35    37    1
    43    37    39   ar
    44    37    38   ar
    45    38    41   ar
    46    38    45    1
    47    39    42   ar
    48    41    44   ar
    49    42    44   ar
    50    13    46    1
    51    13    47    1
    52    14    48    1
    53    14    49    1
    54    17    50    1
    55    17    51    1
    56    18    52    1
    57    19    53    1
    58    20    54    1
    59    20    55    1
    60    24    56    1
    61    25    57    1
    62    25    58    1
    63    25    59    1
    64    26    60    1
    65    28    61    1
    66    29    62    1
    67    33    63    1
    68    35    64    1
    69    35    65    1
    70    36    66    1
    71    36    67    1
    72    39    68    1
    73    40    69    1
    74    40    70    1
    75    40    71    1
    76    41    72    1
    77    42    73    1
    78    43    74    1
    79    43    75    1
    80    43    76    1
    81    44    77    1
@<TRIPOS>MOLECULE
2-[[2-[2-butyl-4-[(Z)-2-carboxy-3-(6-methoxy-1,3-benzodioxol-5-yl)prop-1-enyl]pyrazol-3-yl]-5-methoxyphenoxy]methyl]benzoic acid
 77 81 0 0 0
SMALL
GASTEIGER

@<TRIPOS>ATOM
      1 O           4.3722   -2.2414    3.4474 O.3     1  LIG1       -0.4866
      2 O          -0.8182   -5.5559    9.3557 O.3     1  LIG1       -0.4526
      3 O          -3.1433   -5.4919    9.9962 O.3     1  LIG1       -0.4525
      4 O          -3.4427   -0.7630    8.8645 O.3     1  LIG1       -0.4947
      5 O           7.6786    1.1550    4.6271 O.3     1  LIG1       -0.4950
      6 O           0.9120    0.3175   10.3108 O.co2   1  LIG1       -0.5449
      7 O           2.3139   -1.3913    9.7245 O.co2   1  LIG1       -0.5449
      8 O           5.5696   -3.1057   -0.4711 O.co2   1  LIG1       -0.5446
      9 O           5.9075   -5.2857   -0.9622 O.co2   1  LIG1       -0.5446
     10 N           1.4441   -0.6036    3.5022 N.ar    1  LIG1       -0.2630
     11 N           0.1771   -0.1829    3.7084 N.ar    1  LIG1       -0.1785
     12 C           2.2431   -0.5082    4.6369 C.ar    1  LIG1        0.0795
     13 C           1.7134   -1.2851    2.2520 C.3     1  LIG1        0.0422
     14 C           1.0582   -0.7001    0.9964 C.3     1  LIG1       -0.0336
     15 C           1.3099   -0.4093    5.6822 C.ar    1  LIG1        0.0207
     16 C           3.7110   -0.2586    4.6345 C.ar    1  LIG1        0.0425
     17 C           1.7107    0.5938    0.5049 C.3     1  LIG1       -0.0542
     18 C           0.1036   -0.0794    5.0317 C.ar    1  LIG1        0.0571
     19 C           1.5816   -0.4760    7.0929 C.2     1  LIG1       -0.0459
     20 C          -0.7729   -0.7006    8.1643 C.3     1  LIG1        0.0029
     21 C           4.7018   -1.0095    3.9663 C.ar    1  LIG1        0.1336
     22 C           0.7286   -0.6022    8.1364 C.2     1  LIG1       -0.0200
     23 C          -1.4108   -1.9773    8.7037 C.ar    1  LIG1        0.0023
     24 C           4.1306    0.9129    5.3035 C.ar    1  LIG1       -0.0456
     25 C           3.1794    0.4250    0.1381 C.3     1  LIG1       -0.0652
     26 C           6.0396   -0.5528    3.9427 C.ar    1  LIG1        0.0224
     27 C          -2.7972   -1.9629    9.0452 C.ar    1  LIG1        0.1273
     28 C          -0.6935   -3.1864    8.7831 C.ar    1  LIG1       -0.0092
     29 C           5.4604    1.3385    5.2967 C.ar    1  LIG1       -0.0191
     30 C          -1.3544   -4.3119    9.2278 C.ar    1  LIG1        0.1667
     31 C           6.4166    0.6257    4.5884 C.ar    1  LIG1        0.1236
     32 C          -2.6801   -4.2775    9.5873 C.ar    1  LIG1        0.1697
     33 C          -3.4285   -3.1241    9.5092 C.ar    1  LIG1        0.0258
     34 C           1.3814   -0.5615    9.5316 C.2     1  LIG1        0.0680
     35 C           5.0183   -2.6294    2.2087 C.3     1  LIG1        0.1153
     36 C          -1.9478   -6.2890    9.8582 C.3     1  LIG1        0.2332
     37 C           6.0265   -3.7575    2.3623 C.ar    1  LIG1       -0.0016
     38 C           6.4267   -4.5357    1.2429 C.ar    1  LIG1        0.0037
     39 C           6.5901   -4.0413    3.6217 C.ar    1  LIG1       -0.0547
     40 C          -4.8379   -0.7194    9.1178 C.3     1  LIG1        0.0788
     41 C           7.3402   -5.5910    1.4454 C.ar    1  LIG1       -0.0525
     42 C           7.5169   -5.0707    3.7885 C.ar    1  LIG1       -0.0614
     43 C           8.5874    0.6815    3.6396 C.3     1  LIG1        0.0788
     44 C           7.8851   -5.8527    2.7017 C.ar    1  LIG1       -0.0611
     45 C           5.9169   -4.2892   -0.1695 C.2     1  LIG1        0.0720
     46 H           1.3576   -2.3129    2.3973 H       1  LIG1        0.0509
     47 H           2.7803   -1.3157    2.0931 H       1  LIG1        0.0509
     48 H          -0.0118   -0.5246    1.1582 H       1  LIG1        0.0283
     49 H           1.1259   -1.4485    0.1966 H       1  LIG1        0.0283
     50 H           1.6095    1.3811    1.2601 H       1  LIG1        0.0263
     51 H           1.1675    0.9329   -0.3848 H       1  LIG1        0.0263
     52 H          -0.8369    0.2491    5.4475 H       1  LIG1        0.0854
     53 H           2.6417   -0.4551    7.3553 H       1  LIG1        0.0628
     54 H          -1.1956   -0.5975    7.1684 H       1  LIG1        0.0363
     55 H          -1.1455    0.1571    8.7377 H       1  LIG1        0.0363
     56 H           3.4034    1.5214    5.8418 H       1  LIG1        0.0626
     57 H           3.8019    0.3006    1.0293 H       1  LIG1        0.0230
     58 H           3.5422    1.3114   -0.3900 H       1  LIG1        0.0230
     59 H           3.3286   -0.4447   -0.5104 H       1  LIG1        0.0230
     60 H           6.7933   -1.1518    3.4440 H       1  LIG1        0.0691
     61 H           0.3566   -3.2431    8.5076 H       1  LIG1        0.0659
     62 H           5.7375    2.2384    5.8360 H       1  LIG1        0.0654
     63 H          -4.4706   -3.1565    9.7942 H       1  LIG1        0.0692
     64 H           5.4704   -1.7700    1.6980 H       1  LIG1        0.0748
     65 H           4.1973   -2.9955    1.5833 H       1  LIG1        0.0748
     66 H          -1.6910   -6.7048   10.8392 H       1  LIG1        0.1166
     67 H          -2.1616   -7.1181    9.1739 H       1  LIG1        0.1166
     68 H           6.3010   -3.4628    4.4961 H       1  LIG1        0.0622
     69 H          -5.1873    0.2918    8.8878 H       1  LIG1        0.0660
     70 H          -5.0546   -0.9137   10.1731 H       1  LIG1        0.0660
     71 H          -5.3814   -1.4121    8.4666 H       1  LIG1        0.0660
     72 H           7.6273   -6.2070    0.5942 H       1  LIG1        0.0624
     73 H           7.9362   -5.2643    4.7712 H       1  LIG1        0.0618
     74 H           9.4922    1.2938    3.7038 H       1  LIG1        0.0660
     75 H           8.1772    0.7991    2.6308 H       1  LIG1        0.0660
     76 H           8.8757   -0.3561    3.8340 H       1  LIG1        0.0660
     77 H           8.5915   -6.6677    2.8236 H       1  LIG1        0.0618
@<TRIPOS>BOND
     1     1    35    1
     2     1    21    1
     3     2    36    1
     4     2    30    1
     5     3    32    1
     6     3    36    1
     7     4    27    1
     8     4    40    1
     9     5    31    1
    10     5    43    1
    11     6    34   ar
    12     7    34   ar
    13     8    45   ar
    14     9    45   ar
    15    10    11   ar
    16    10    12   ar
    17    10    13    1
    18    11    18   ar
    19    12    15   ar
    20    13    14    1
    21    14    17    1
    22    15    18   ar
    23    15    19    1
    24    16    24   ar
    25    16    21   ar
    26    16    12    1
    27    17    25    1
    28    19    22    2
    29    20    22    1
    30    20    23    1
    31    21    26   ar
    32    22    34    1
    33    23    28   ar
    34    23    27   ar
    35    24    29   ar
    36    26    31   ar
    37    27    33   ar
    38    28    30   ar
    39    29    31   ar
    40    30    32   ar
    41    32    33   ar
    42    35    37    1
    43    37    39   ar
    44    37    38   ar
    45    38    41   ar
    46    38    45    1
    47    39    42   ar
    48    41    44   ar
    49    42    44   ar
    50    13    46    1
    51    13    47    1
    52    14    48    1
    53    14    49    1
    54    17    50    1
    55    17    51    1
    56    18    52    1
    57    19    53    1
    58    20    54    1
    59    20    55    1
    60    24    56    1
    61    25    57    1
    62    25    58    1
    63    25    59    1
    64    26    60    1
    65    28    61    1
    66    29    62    1
    67    33    63    1
    68    35    64    1
    69    35    65    1
    70    36    66    1
    71    36    67    1
    72    39    68    1
    73    40    69    1
    74    40    70    1
    75    40    71    1
    76    41    72    1
    77    42    73    1
    78    43    74    1
    79    43    75    1
    80    43    76    1
    81    44    77    1
@<TRIPOS>MOLECULE
2-[[2-[2-butyl-4-[(Z)-2-carboxy-3-(6-methoxy-1,3-benzodioxol-5-yl)prop-1-enyl]pyrazol-3-yl]-5-methoxyphenoxy]methyl]benzoic acid
 77 81 0 0 0
SMALL
GASTEIGER

@<TRIPOS>ATOM
      1 O           3.7432    1.2788    6.1886 O.3     1  LIG1       -0.4866
      2 O          -0.8605   -5.1379   11.8715 O.3     1  LIG1       -0.4526
      3 O          -0.8705   -7.0400   10.3907 O.3     1  LIG1       -0.4525
      4 O          -0.9532   -4.1656    6.4701 O.3     1  LIG1       -0.4947
      5 O           7.7428   -0.7757    4.7366 O.3     1  LIG1       -0.4950
      6 O           2.0466   -1.4820   10.1209 O.co2   1  LIG1       -0.5449
      7 O           0.1341   -0.2710   10.4601 O.co2   1  LIG1       -0.5449
      8 O           6.5083    3.7563    6.1980 O.co2   1  LIG1       -0.5446
      9 O           6.7058    4.1791    8.4028 O.co2   1  LIG1       -0.5446
     10 N           1.3096   -0.7117    3.7860 N.ar    1  LIG1       -0.2630
     11 N           0.0208   -0.3601    3.9816 N.ar    1  LIG1       -0.1785
     12 C           2.0748   -0.7020    4.9467 C.ar    1  LIG1        0.0795
     13 C           1.7253   -1.1754    2.4698 C.3     1  LIG1        0.0422
     14 C           0.6702   -1.1186    1.3529 C.3     1  LIG1       -0.0336
     15 C           1.1351   -0.5880    5.9654 C.ar    1  LIG1        0.0207
     16 C           3.5487   -0.7798    4.9660 C.ar    1  LIG1        0.0425
     17 C           0.9075   -2.1542    0.2482 C.3     1  LIG1       -0.0542
     18 C          -0.0769   -0.2949    5.3089 C.ar    1  LIG1        0.0571
     19 C           1.3598   -0.6495    7.3757 C.2     1  LIG1       -0.0459
     20 C          -0.7959   -1.8514    8.1553 C.3     1  LIG1        0.0029
     21 C           4.3389    0.2599    5.4910 C.ar    1  LIG1        0.1336
     22 C           0.5347   -1.1621    8.3155 C.2     1  LIG1       -0.0200
     23 C          -0.8570   -3.2806    8.6835 C.ar    1  LIG1        0.0023
     24 C           4.2112   -1.8723    4.3867 C.ar    1  LIG1       -0.0456
     25 C           2.2603   -2.0392   -0.4329 C.3     1  LIG1       -0.0652
     26 C           5.7384    0.2084    5.4143 C.ar    1  LIG1        0.0224
     27 C          -0.9221   -4.4060    7.8218 C.ar    1  LIG1        0.1273
     28 C          -0.8681   -3.4865   10.0795 C.ar    1  LIG1       -0.0092
     29 C           5.6086   -1.9053    4.2776 C.ar    1  LIG1       -0.0191
     30 C          -0.8744   -4.7748   10.5611 C.ar    1  LIG1        0.1667
     31 C           6.3785   -0.8602    4.7847 C.ar    1  LIG1        0.1236
     32 C          -0.8887   -5.8559    9.7168 C.ar    1  LIG1        0.1697
     33 C          -0.9199   -5.7082    8.3467 C.ar    1  LIG1        0.0258
     34 C           0.9702   -0.9269    9.7682 C.2     1  LIG1        0.0680
     35 C           3.8962    2.5602    5.5729 C.3     1  LIG1        0.1153
     36 C          -0.7322   -6.5630   11.7470 C.3     1  LIG1        0.2332
     37 C           3.5585    3.6226    6.5991 C.ar    1  LIG1       -0.0016
     38 C           4.5176    4.2380    7.4404 C.ar    1  LIG1        0.0037
     39 C           2.1905    3.9359    6.7754 C.ar    1  LIG1       -0.0547
     40 C          -1.7620   -5.0617    5.7191 C.3     1  LIG1        0.0788
     41 C           4.0575    5.1325    8.4329 C.ar    1  LIG1       -0.0525
     42 C           1.7694    4.8443    7.7465 C.ar    1  LIG1       -0.0614
     43 C           8.4421   -1.8581    4.1440 C.3     1  LIG1        0.0788
     44 C           2.7039    5.4390    8.5819 C.ar    1  LIG1       -0.0611
     45 C           6.0185    4.0101    7.3426 C.2     1  LIG1        0.0720
     46 H           2.0192   -2.2204    2.6126 H       1  LIG1        0.0509
     47 H           2.6056   -0.5908    2.1816 H       1  LIG1        0.0509
     48 H           0.6488   -0.1093    0.9245 H       1  LIG1        0.0283
     49 H          -0.3341   -1.3111    1.7479 H       1  LIG1        0.0283
     50 H           0.1190   -2.0475   -0.5064 H       1  LIG1        0.0263
     51 H           0.8026   -3.1625    0.6678 H       1  LIG1        0.0263
     52 H          -1.0296   -0.0385    5.7512 H       1  LIG1        0.0854
     53 H           2.2994   -0.2187    7.7288 H       1  LIG1        0.0628
     54 H          -1.1145   -1.8596    7.1111 H       1  LIG1        0.0363
     55 H          -1.5734   -1.2664    8.6645 H       1  LIG1        0.0363
     56 H           3.6446   -2.7231    4.0221 H       1  LIG1        0.0626
     57 H           2.4021   -1.0418   -0.8587 H       1  LIG1        0.0230
     58 H           2.3312   -2.7702   -1.2450 H       1  LIG1        0.0230
     59 H           3.0782   -2.2406    0.2650 H       1  LIG1        0.0230
     60 H           6.3321    1.0057    5.8626 H       1  LIG1        0.0691
     61 H          -0.8362   -2.6487   10.7715 H       1  LIG1        0.0659
     62 H           6.0620   -2.7673    3.8024 H       1  LIG1        0.0654
     63 H          -0.9142   -6.5859    7.7161 H       1  LIG1        0.0692
     64 H           3.1684    2.6220    4.7515 H       1  LIG1        0.0748
     65 H           4.8675    2.7086    5.1027 H       1  LIG1        0.0748
     66 H          -1.5051   -7.0371   12.3621 H       1  LIG1        0.1166
     67 H           0.2509   -6.8656   12.1282 H       1  LIG1        0.1166
     68 H           1.4412    3.4355    6.1653 H       1  LIG1        0.0622
     69 H          -1.9653   -4.5982    4.7488 H       1  LIG1        0.0660
     70 H          -2.7261   -5.2481    6.2062 H       1  LIG1        0.0660
     71 H          -1.2323   -6.0012    5.5335 H       1  LIG1        0.0660
     72 H           4.7845    5.5839    9.1069 H       1  LIG1        0.0624
     73 H           0.7121    5.0550    7.8702 H       1  LIG1        0.0618
     74 H           9.5133   -1.6438    4.2129 H       1  LIG1        0.0660
     75 H           8.1919   -1.9557    3.0824 H       1  LIG1        0.0660
     76 H           8.2565   -2.7938    4.6813 H       1  LIG1        0.0660
     77 H           2.3890    6.1220    9.3636 H       1  LIG1        0.0618
@<TRIPOS>BOND
     1     1    35    1
     2     1    21    1
     3     2    36    1
     4     2    30    1
     5     3    32    1
     6     3    36    1
     7     4    27    1
     8     4    40    1
     9     5    31    1
    10     5    43    1
    11     6    34   ar
    12     7    34   ar
    13     8    45   ar
    14     9    45   ar
    15    10    11   ar
    16    10    12   ar
    17    10    13    1
    18    11    18   ar
    19    12    15   ar
    20    13    14    1
    21    14    17    1
    22    15    18   ar
    23    15    19    1
    24    16    24   ar
    25    16    21   ar
    26    16    12    1
    27    17    25    1
    28    19    22    2
    29    20    22    1
    30    20    23    1
    31    21    26   ar
    32    22    34    1
    33    23    28   ar
    34    23    27   ar
    35    24    29   ar
    36    26    31   ar
    37    27    33   ar
    38    28    30   ar
    39    29    31   ar
    40    30    32   ar
    41    32    33   ar
    42    35    37    1
    43    37    39   ar
    44    37    38   ar
    45    38    41   ar
    46    38    45    1
    47    39    42   ar
    48    41    44   ar
    49    42    44   ar
    50    13    46    1
    51    13    47    1
    52    14    48    1
    53    14    49    1
    54    17    50    1
    55    17    51    1
    56    18    52    1
    57    19    53    1
    58    20    54    1
    59    20    55    1
    60    24    56    1
    61    25    57    1
    62    25    58    1
    63    25    59    1
    64    26    60    1
    65    28    61    1
    66    29    62    1
    67    33    63    1
    68    35    64    1
    69    35    65    1
    70    36    66    1
    71    36    67    1
    72    39    68    1
    73    40    69    1
    74    40    70    1
    75    40    71    1
    76    41    72    1
    77    42    73    1
    78    43    74    1
    79    43    75    1
    80    43    76    1
    81    44    77    1
@<TRIPOS>MOLECULE
2-[[2-[2-butyl-4-[(Z)-2-carboxy-3-(6-methoxy-1,3-benzodioxol-5-yl)prop-1-enyl]pyrazol-3-yl]-5-methoxyphenoxy]methyl]benzoic acid
 77 81 0 0 0
SMALL
GASTEIGER

@<TRIPOS>ATOM
      1 O           3.7953    1.2402    6.2723 O.3     1  LIG1       -0.4866
      2 O          -0.7912   -5.2650   11.9888 O.3     1  LIG1       -0.4526
      3 O          -0.8694   -7.1269   10.4583 O.3     1  LIG1       -0.4525
      4 O          -0.8302   -4.1533    6.6161 O.3     1  LIG1       -0.4947
      5 O           7.7252   -0.5736    4.5462 O.3     1  LIG1       -0.4950
      6 O           2.5860   -1.7096    9.8534 O.co2   1  LIG1       -0.5449
      7 O           0.7120   -0.6759   10.6517 O.co2   1  LIG1       -0.5449
      8 O           1.0237    4.0885    4.7290 O.co2   1  LIG1       -0.5446
      9 O          -0.3389    4.8736    6.3475 O.co2   1  LIG1       -0.5446
     10 N           1.2526   -0.8522    3.7532 N.ar    1  LIG1       -0.2630
     11 N          -0.0612   -0.7327    4.0158 N.ar    1  LIG1       -0.1785
     12 C           2.0601   -0.7735    4.8843 C.ar    1  LIG1        0.0795
     13 C           1.6738   -1.2276    2.4115 C.3     1  LIG1        0.0422
     14 C           0.6266   -1.1566    1.2888 C.3     1  LIG1       -0.0336
     15 C           1.1621   -0.7716    5.9483 C.ar    1  LIG1        0.0207
     16 C           3.5325   -0.7251    4.8386 C.ar    1  LIG1        0.0425
     17 C           0.8822   -2.1821    0.1759 C.3     1  LIG1       -0.0542
     18 C          -0.1012   -0.6131    5.3430 C.ar    1  LIG1        0.0571
     19 C           1.4961   -0.8436    7.3384 C.2     1  LIG1       -0.0459
     20 C          -0.6280   -1.8929    8.3665 C.3     1  LIG1        0.0029
     21 C           4.2912    0.3226    5.3879 C.ar    1  LIG1        0.1336
     22 C           0.7620   -1.3192    8.3688 C.2     1  LIG1       -0.0200
     23 C          -0.7329   -3.3311    8.8534 C.ar    1  LIG1        0.0023
     24 C           4.2317   -1.7737    4.2146 C.ar    1  LIG1       -0.0456
     25 C           2.2475   -2.0653   -0.4819 C.3     1  LIG1       -0.0652
     26 C           5.6905    0.3270    5.2629 C.ar    1  LIG1        0.0224
     27 C          -0.8270   -4.4290    7.9600 C.ar    1  LIG1        0.1273
     28 C          -0.7435   -3.5698   10.2420 C.ar    1  LIG1       -0.0092
     29 C           5.6253   -1.7580    4.0788 C.ar    1  LIG1       -0.0191
     30 C          -0.7951   -4.8685   10.6888 C.ar    1  LIG1        0.1667
     31 C           6.3633   -0.6999    4.5988 C.ar    1  LIG1        0.1236
     32 C          -0.8471   -5.9259    9.8147 C.ar    1  LIG1        0.1697
     33 C          -0.8693   -5.7430    8.4489 C.ar    1  LIG1        0.0258
     34 C           1.4294   -1.2073    9.7542 C.2     1  LIG1        0.0680
     35 C           3.0393    2.3387    5.7298 C.3     1  LIG1        0.1153
     36 C          -0.7277   -6.6901   11.8278 C.3     1  LIG1        0.2332
     37 C           3.0097    3.4394    6.7896 C.ar    1  LIG1       -0.0016
     38 C           1.9194    4.3313    6.9224 C.ar    1  LIG1        0.0037
     39 C           4.1001    3.5715    7.6782 C.ar    1  LIG1       -0.0547
     40 C          -1.7147   -4.9569    5.8448 C.3     1  LIG1        0.0788
     41 C           1.9103    5.2299    8.0180 C.ar    1  LIG1       -0.0525
     42 C           4.0877    4.4945    8.7253 C.ar    1  LIG1       -0.0614
     43 C           8.4507   -1.7065    4.0875 C.3     1  LIG1        0.0788
     44 C           2.9793    5.3071    8.9117 C.ar    1  LIG1       -0.0611
     45 C           0.7675    4.4072    5.9363 C.2     1  LIG1        0.0720
     46 H           2.0086   -2.2665    2.5035 H       1  LIG1        0.0509
     47 H           2.5310   -0.5986    2.1484 H       1  LIG1        0.0509
     48 H           0.6135   -0.1436    0.8691 H       1  LIG1        0.0283
     49 H          -0.3829   -1.3494    1.6679 H       1  LIG1        0.0283
     50 H           0.1073   -2.0682   -0.5914 H       1  LIG1        0.0263
     51 H           0.7699   -3.1943    0.5844 H       1  LIG1        0.0263
     52 H          -1.0574   -0.4377    5.8128 H       1  LIG1        0.0854
     53 H           2.4951   -0.4879    7.5960 H       1  LIG1        0.0628
     54 H          -1.0909   -1.8452    7.3810 H       1  LIG1        0.0363
     55 H          -1.2805   -1.2650    8.9880 H       1  LIG1        0.0363
     56 H           3.6923   -2.6448    3.8529 H       1  LIG1        0.0626
     57 H           2.3972   -1.0671   -0.9034 H       1  LIG1        0.0230
     58 H           2.3333   -2.7947   -1.2944 H       1  LIG1        0.0230
     59 H           3.0550   -2.2685    0.2281 H       1  LIG1        0.0230
     60 H           6.2589    1.1247    5.7348 H       1  LIG1        0.0691
     61 H          -0.6778   -2.7462   10.9491 H       1  LIG1        0.0659
     62 H           6.0955   -2.5970    3.5796 H       1  LIG1        0.0654
     63 H          -0.8885   -6.6011    7.7917 H       1  LIG1        0.0692
     64 H           2.0291    1.9790    5.5257 H       1  LIG1        0.0748
     65 H           3.5092    2.7236    4.8179 H       1  LIG1        0.0748
     66 H          -1.5291   -7.1437   12.4209 H       1  LIG1        0.1166
     67 H           0.2356   -7.0467   12.2120 H       1  LIG1        0.1166
     68 H           4.9617    2.9163    7.5770 H       1  LIG1        0.0622
     69 H          -1.8846   -4.4502    4.8901 H       1  LIG1        0.0660
     70 H          -2.6879   -5.0801    6.3345 H       1  LIG1        0.0660
     71 H          -1.2649   -5.9309    5.6286 H       1  LIG1        0.0660
     72 H           1.0455    5.8751    8.1600 H       1  LIG1        0.0624
     73 H           4.9286    4.5474    9.4077 H       1  LIG1        0.0618
     74 H           9.5175   -1.4890    4.1963 H       1  LIG1        0.0660
     75 H           8.2572   -1.8930    3.0259 H       1  LIG1        0.0660
     76 H           8.2310   -2.5944    4.6907 H       1  LIG1        0.0660
     77 H           2.9384    6.0006    9.7442 H       1  LIG1        0.0618
@<TRIPOS>BOND
     1     1    35    1
     2     1    21    1
     3     2    36    1
     4     2    30    1
     5     3    32    1
     6     3    36    1
     7     4    27    1
     8     4    40    1
     9     5    31    1
    10     5    43    1
    11     6    34   ar
    12     7    34   ar
    13     8    45   ar
    14     9    45   ar
    15    10    11   ar
    16    10    12   ar
    17    10    13    1
    18    11    18   ar
    19    12    15   ar
    20    13    14    1
    21    14    17    1
    22    15    18   ar
    23    15    19    1
    24    16    24   ar
    25    16    21   ar
    26    16    12    1
    27    17    25    1
    28    19    22    2
    29    20    22    1
    30    20    23    1
    31    21    26   ar
    32    22    34    1
    33    23    28   ar
    34    23    27   ar
    35    24    29   ar
    36    26    31   ar
    37    27    33   ar
    38    28    30   ar
    39    29    31   ar
    40    30    32   ar
    41    32    33   ar
    42    35    37    1
    43    37    39   ar
    44    37    38   ar
    45    38    41   ar
    46    38    45    1
    47    39    42   ar
    48    41    44   ar
    49    42    44   ar
    50    13    46    1
    51    13    47    1
    52    14    48    1
    53    14    49    1
    54    17    50    1
    55    17    51    1
    56    18    52    1
    57    19    53    1
    58    20    54    1
    59    20    55    1
    60    24    56    1
    61    25    57    1
    62    25    58    1
    63    25    59    1
    64    26    60    1
    65    28    61    1
    66    29    62    1
    67    33    63    1
    68    35    64    1
    69    35    65    1
    70    36    66    1
    71    36    67    1
    72    39    68    1
    73    40    69    1
    74    40    70    1
    75    40    71    1
    76    41    72    1
    77    42    73    1
    78    43    74    1
    79    43    75    1
    80    43    76    1
    81    44    77    1
@<TRIPOS>MOLECULE
2-[[2-[2-butyl-4-[(Z)-2-carboxy-3-(6-methoxy-1,3-benzodioxol-5-yl)prop-1-enyl]pyrazol-3-yl]-5-methoxyphenoxy]methyl]benzoic acid
 77 81 0 0 0
SMALL
GASTEIGER

@<TRIPOS>ATOM
      1 O           4.3674    1.7224    5.5252 O.3     1  LIG1       -0.4866
      2 O          -3.0153   -5.1323   10.3663 O.3     1  LIG1       -0.4526
      3 O          -1.4350   -6.9362   10.0867 O.3     1  LIG1       -0.4525
      4 O           1.5750   -4.1523    7.5570 O.3     1  LIG1       -0.4947
      5 O           7.8401   -1.6745    4.7127 O.3     1  LIG1       -0.4950
      6 O           0.3630   -0.8672   10.4971 O.co2   1  LIG1       -0.5449
      7 O           2.5492   -1.2788    9.9775 O.co2   1  LIG1       -0.5449
      8 O           2.3399    5.0318    3.8844 O.co2   1  LIG1       -0.5446
      9 O           4.1208    3.7904    3.2433 O.co2   1  LIG1       -0.5446
     10 N           1.5710   -0.2747    3.7944 N.ar    1  LIG1       -0.2630
     11 N           0.2738    0.0242    4.0387 N.ar    1  LIG1       -0.1785
     12 C           2.3631   -0.2848    4.9389 C.ar    1  LIG1        0.0795
     13 C           1.9528   -0.7803    2.4806 C.3     1  LIG1        0.0422
     14 C           0.8404   -0.8637    1.4185 C.3     1  LIG1       -0.0336
     15 C           1.4567   -0.1837    5.9812 C.ar    1  LIG1        0.0207
     16 C           3.8059   -0.5545    4.9433 C.ar    1  LIG1        0.0425
     17 C           1.0329   -2.0079    0.4143 C.3     1  LIG1       -0.0542
     18 C           0.2251    0.1195    5.3669 C.ar    1  LIG1        0.0571
     19 C           1.7148   -0.3689    7.3750 C.2     1  LIG1       -0.0459
     20 C          -0.2602   -1.8992    7.8310 C.3     1  LIG1        0.0029
     21 C           4.7808    0.4334    5.2002 C.ar    1  LIG1        0.1336
     22 C           0.9556   -1.1025    8.2211 C.2     1  LIG1       -0.0200
     23 C          -0.4672   -3.2606    8.4701 C.ar    1  LIG1        0.0023
     24 C           4.2230   -1.8710    4.6616 C.ar    1  LIG1       -0.0456
     25 C           2.3481   -1.9628   -0.3441 C.3     1  LIG1       -0.0652
     26 C           6.1430    0.0616    5.1275 C.ar    1  LIG1        0.0224
     27 C           0.4464   -4.3284    8.3155 C.ar    1  LIG1        0.1273
     28 C          -1.6603   -3.4867    9.1848 C.ar    1  LIG1       -0.0092
     29 C           5.5750   -2.2052    4.5803 C.ar    1  LIG1       -0.0191
     30 C          -1.8986   -4.7455    9.6917 C.ar    1  LIG1        0.1667
     31 C           6.5440   -1.2398    4.8156 C.ar    1  LIG1        0.1236
     32 C          -1.0003   -5.7729    9.5279 C.ar    1  LIG1        0.1697
     33 C           0.1822   -5.5989    8.8446 C.ar    1  LIG1        0.0258
     34 C           1.3294   -1.0779    9.7071 C.2     1  LIG1        0.0680
     35 C           5.4294    2.6835    5.6342 C.3     1  LIG1        0.1153
     36 C          -2.7009   -6.5110   10.6304 C.3     1  LIG1        0.2332
     37 C           5.1112    4.1195    6.0289 C.ar    1  LIG1       -0.0016
     38 C           4.2375    4.9576    5.3088 C.ar    1  LIG1        0.0037
     39 C           5.8814    4.6903    7.0733 C.ar    1  LIG1       -0.0547
     40 C           2.7411   -4.1431    8.3858 C.3     1  LIG1        0.0788
     41 C           4.1289    6.3152    5.6906 C.ar    1  LIG1       -0.0525
     42 C           5.7928    6.0448    7.4023 C.ar    1  LIG1       -0.0614
     43 C           8.8508   -0.7527    5.1062 C.3     1  LIG1        0.0788
     44 C           4.9070    6.8583    6.7121 C.ar    1  LIG1       -0.0611
     45 C           3.4896    4.5218    4.0663 C.2     1  LIG1        0.0720
     46 H           2.3316   -1.7925    2.6570 H       1  LIG1        0.0509
     47 H           2.7770   -0.1553    2.1207 H       1  LIG1        0.0509
     48 H           0.7786    0.0928    0.8861 H       1  LIG1        0.0283
     49 H          -0.1406   -1.0256    1.8799 H       1  LIG1        0.0283
     50 H           0.2074   -1.9807   -0.3079 H       1  LIG1        0.0263
     51 H           0.9548   -2.9687    0.9380 H       1  LIG1        0.0263
     52 H          -0.7200    0.3442    5.8410 H       1  LIG1        0.0854
     53 H           2.5982    0.1322    7.7715 H       1  LIG1        0.0628
     54 H          -0.2788   -2.0929    6.7520 H       1  LIG1        0.0363
     55 H          -1.1379   -1.2696    8.0300 H       1  LIG1        0.0363
     56 H           3.4801   -2.6506    4.5078 H       1  LIG1        0.0626
     57 H           2.4679   -1.0105   -0.8680 H       1  LIG1        0.0230
     58 H           2.3765   -2.7662   -1.0880 H       1  LIG1        0.0230
     59 H           3.2012   -2.1035    0.3261 H       1  LIG1        0.0230
     60 H           6.9114    0.7979    5.3098 H       1  LIG1        0.0691
     61 H          -2.3793   -2.6877    9.3322 H       1  LIG1        0.0659
     62 H           5.8665   -3.2234    4.3435 H       1  LIG1        0.0654
     63 H           0.8745   -6.4181    8.7044 H       1  LIG1        0.0692
     64 H           5.9981    2.7298    4.6971 H       1  LIG1        0.0748
     65 H           6.0952    2.3147    6.4261 H       1  LIG1        0.0748
     66 H          -3.4909   -7.1369   10.1987 H       1  LIG1        0.1166
     67 H          -2.6882   -6.6663   11.7154 H       1  LIG1        0.1166
     68 H           6.5933    4.0761    7.6207 H       1  LIG1        0.0622
     69 H           3.4619   -3.4420    7.9553 H       1  LIG1        0.0660
     70 H           3.1902   -5.1418    8.3787 H       1  LIG1        0.0660
     71 H           2.5393   -3.8491    9.4218 H       1  LIG1        0.0660
     72 H           3.4462    6.9575    5.1337 H       1  LIG1        0.0624
     73 H           6.4230    6.4574    8.1822 H       1  LIG1        0.0618
     74 H           9.8183   -1.2548    5.0114 H       1  LIG1        0.0660
     75 H           8.7316   -0.4581    6.1547 H       1  LIG1        0.0660
     76 H           8.8699    0.1226    4.4480 H       1  LIG1        0.0660
     77 H           4.8293    7.9147    6.9474 H       1  LIG1        0.0618
@<TRIPOS>BOND
     1     1    35    1
     2     1    21    1
     3     2    36    1
     4     2    30    1
     5     3    32    1
     6     3    36    1
     7     4    27    1
     8     4    40    1
     9     5    31    1
    10     5    43    1
    11     6    34   ar
    12     7    34   ar
    13     8    45   ar
    14     9    45   ar
    15    10    11   ar
    16    10    12   ar
    17    10    13    1
    18    11    18   ar
    19    12    15   ar
    20    13    14    1
    21    14    17    1
    22    15    18   ar
    23    15    19    1
    24    16    24   ar
    25    16    21   ar
    26    16    12    1
    27    17    25    1
    28    19    22    2
    29    20    22    1
    30    20    23    1
    31    21    26   ar
    32    22    34    1
    33    23    28   ar
    34    23    27   ar
    35    24    29   ar
    36    26    31   ar
    37    27    33   ar
    38    28    30   ar
    39    29    31   ar
    40    30    32   ar
    41    32    33   ar
    42    35    37    1
    43    37    39   ar
    44    37    38   ar
    45    38    41   ar
    46    38    45    1
    47    39    42   ar
    48    41    44   ar
    49    42    44   ar
    50    13    46    1
    51    13    47    1
    52    14    48    1
    53    14    49    1
    54    17    50    1
    55    17    51    1
    56    18    52    1
    57    19    53    1
    58    20    54    1
    59    20    55    1
    60    24    56    1
    61    25    57    1
    62    25    58    1
    63    25    59    1
    64    26    60    1
    65    28    61    1
    66    29    62    1
    67    33    63    1
    68    35    64    1
    69    35    65    1
    70    36    66    1
    71    36    67    1
    72    39    68    1
    73    40    69    1
    74    40    70    1
    75    40    71    1
    76    41    72    1
    77    42    73    1
    78    43    74    1
    79    43    75    1
    80    43    76    1
    81    44    77    1
@<TRIPOS>MOLECULE
2-[[2-[2-butyl-4-[(Z)-2-carboxy-3-(6-methoxy-1,3-benzodioxol-5-yl)prop-1-enyl]pyrazol-3-yl]-5-methoxyphenoxy]methyl]benzoic acid
 77 81 0 0 0
SMALL
GASTEIGER

@<TRIPOS>ATOM
      1 O           3.8208    1.2456    6.2873 O.3     1  LIG1       -0.4866
      2 O          -0.8024   -5.2273   11.9942 O.3     1  LIG1       -0.4526
      3 O          -0.8605   -7.0965   10.4724 O.3     1  LIG1       -0.4525
      4 O          -0.7946   -4.1091    6.6166 O.3     1  LIG1       -0.4947
      5 O           7.7832   -0.6373    4.3485 O.3     1  LIG1       -0.4950
      6 O           0.7373   -0.6464   10.6366 O.co2   1  LIG1       -0.5449
      7 O           2.6137   -1.6826    9.8546 O.co2   1  LIG1       -0.5449
      8 O           1.0019    4.0561    4.7575 O.co2   1  LIG1       -0.5446
      9 O          -0.3913    4.7415    6.4037 O.co2   1  LIG1       -0.5446
     10 N           1.3493   -0.8931    3.7301 N.ar    1  LIG1       -0.2630
     11 N           0.0283   -0.8093    3.9718 N.ar    1  LIG1       -0.1785
     12 C           2.1373   -0.7951    4.8734 C.ar    1  LIG1        0.0795
     13 C           1.7972   -1.2650    2.3964 C.3     1  LIG1        0.0422
     14 C           0.8009   -1.1240    1.2374 C.3     1  LIG1       -0.0336
     15 C           1.2232   -0.8035    5.9243 C.ar    1  LIG1        0.0207
     16 C           3.6090   -0.7170    4.8427 C.ar    1  LIG1        0.0425
     17 C           0.7364    0.2792    0.6343 C.3     1  LIG1       -0.0542
     18 C          -0.0337   -0.6788    5.2979 C.ar    1  LIG1        0.0571
     19 C           1.5387   -0.8548    7.3219 C.2     1  LIG1       -0.0459
     20 C          -0.5988   -1.8747    8.3591 C.3     1  LIG1        0.0029
     21 C           4.3421    0.3475    5.3964 C.ar    1  LIG1        0.1336
     22 C           0.7962   -1.3071    8.3548 C.2     1  LIG1       -0.0200
     23 C          -0.7075   -3.3126    8.8486 C.ar    1  LIG1        0.0023
     24 C           4.3334   -1.7392    4.2052 C.ar    1  LIG1       -0.0456
     25 C           1.9917    0.6411   -0.1495 C.3     1  LIG1       -0.0652
     26 C           5.7417    0.4047    5.2609 C.ar    1  LIG1        0.0224
     27 C          -0.7791   -4.4141    7.9538 C.ar    1  LIG1        0.1273
     28 C          -0.7320   -3.5411   10.2396 C.ar    1  LIG1       -0.0092
     29 C           5.7207   -1.6650    4.0497 C.ar    1  LIG1       -0.0191
     30 C          -0.7858   -4.8363   10.6932 C.ar    1  LIG1        0.1667
     31 C           6.4326   -0.5862    4.5657 C.ar    1  LIG1        0.1236
     32 C          -0.8266   -5.8971    9.8244 C.ar    1  LIG1        0.1697
     33 C          -0.8318   -5.7232    8.4555 C.ar    1  LIG1        0.0258
     34 C           1.4573   -1.1850    9.7443 C.2     1  LIG1        0.0680
     35 C           3.0565    2.3378    5.7428 C.3     1  LIG1        0.1153
     36 C          -0.7436   -6.6541   11.8419 C.3     1  LIG1        0.2332
     37 C           3.0039    3.4307    6.8085 C.ar    1  LIG1       -0.0016
     38 C           1.8865    4.2865    6.9595 C.ar    1  LIG1        0.0037
     39 C           4.0986    3.5916    7.6886 C.ar    1  LIG1       -0.0547
     40 C          -1.1126   -5.1511    5.7086 C.3     1  LIG1        0.0788
     41 C           1.8559    5.1697    8.0621 C.ar    1  LIG1       -0.0525
     42 C           4.0628    4.5029    8.7448 C.ar    1  LIG1       -0.0614
     43 C           8.5596    0.3900    4.9506 C.3     1  LIG1        0.0788
     44 C           2.9281    5.2744    8.9484 C.ar    1  LIG1       -0.0611
     45 C           0.7356    4.3349    5.9699 C.2     1  LIG1        0.0720
     46 H           2.0460   -2.3304    2.4753 H       1  LIG1        0.0509
     47 H           2.7165   -0.7135    2.1852 H       1  LIG1        0.0509
     48 H          -0.2047   -1.4327    1.5453 H       1  LIG1        0.0283
     49 H           1.0973   -1.8247    0.4455 H       1  LIG1        0.0283
     50 H           0.5535    1.0263    1.4137 H       1  LIG1        0.0263
     51 H          -0.1162    0.3170   -0.0545 H       1  LIG1        0.0263
     52 H          -1.0023   -0.5207    5.7497 H       1  LIG1        0.0854
     53 H           2.5381   -0.5025    7.5837 H       1  LIG1        0.0628
     54 H          -1.0699   -1.8221    7.3779 H       1  LIG1        0.0363
     55 H          -1.2430   -1.2434    8.9853 H       1  LIG1        0.0363
     56 H           3.8205   -2.6226    3.8359 H       1  LIG1        0.0626
     57 H           2.8581    0.7573    0.5075 H       1  LIG1        0.0230
     58 H           1.8464    1.5877   -0.6790 H       1  LIG1        0.0230
     59 H           2.2267   -0.1275   -0.8938 H       1  LIG1        0.0230
     60 H           6.2558    1.2286    5.7432 H       1  LIG1        0.0691
     61 H          -0.6788   -2.7131   10.9416 H       1  LIG1        0.0659
     62 H           6.2473   -2.4675    3.5414 H       1  LIG1        0.0654
     63 H          -0.8605   -6.5943    7.8165 H       1  LIG1        0.0692
     64 H           2.0538    1.9650    5.5262 H       1  LIG1        0.0748
     65 H           3.5293    2.7343    4.8372 H       1  LIG1        0.0748
     66 H          -1.5589   -7.1000   12.4227 H       1  LIG1        0.1166
     67 H           0.2099   -7.0143   12.2477 H       1  LIG1        0.1166
     68 H           4.9794    2.9649    7.5745 H       1  LIG1        0.0622
     69 H          -1.1952   -4.7129    4.7094 H       1  LIG1        0.0660
     70 H          -2.0782   -5.6093    5.9495 H       1  LIG1        0.0660
     71 H          -0.3175   -5.9031    5.6770 H       1  LIG1        0.0660
     72 H           0.9691    5.7831    8.2174 H       1  LIG1        0.0624
     73 H           4.9066    4.5789    9.4221 H       1  LIG1        0.0618
     74 H           9.6090    0.1995    4.7040 H       1  LIG1        0.0660
     75 H           8.4666    0.3697    6.0413 H       1  LIG1        0.0660
     76 H           8.2977    1.3731    4.5461 H       1  LIG1        0.0660
     77 H           2.8688    5.9564    9.7897 H       1  LIG1        0.0618
@<TRIPOS>BOND
     1     1    35    1
     2     1    21    1
     3     2    36    1
     4     2    30    1
     5     3    32    1
     6     3    36    1
     7     4    27    1
     8     4    40    1
     9     5    31    1
    10     5    43    1
    11     6    34   ar
    12     7    34   ar
    13     8    45   ar
    14     9    45   ar
    15    10    11   ar
    16    10    12   ar
    17    10    13    1
    18    11    18   ar
    19    12    15   ar
    20    13    14    1
    21    14    17    1
    22    15    18   ar
    23    15    19    1
    24    16    24   ar
    25    16    21   ar
    26    16    12    1
    27    17    25    1
    28    19    22    2
    29    20    22    1
    30    20    23    1
    31    21    26   ar
    32    22    34    1
    33    23    28   ar
    34    23    27   ar
    35    24    29   ar
    36    26    31   ar
    37    27    33   ar
    38    28    30   ar
    39    29    31   ar
    40    30    32   ar
    41    32    33   ar
    42    35    37    1
    43    37    39   ar
    44    37    38   ar
    45    38    41   ar
    46    38    45    1
    47    39    42   ar
    48    41    44   ar
    49    42    44   ar
    50    13    46    1
    51    13    47    1
    52    14    48    1
    53    14    49    1
    54    17    50    1
    55    17    51    1
    56    18    52    1
    57    19    53    1
    58    20    54    1
    59    20    55    1
    60    24    56    1
    61    25    57    1
    62    25    58    1
    63    25    59    1
    64    26    60    1
    65    28    61    1
    66    29    62    1
    67    33    63    1
    68    35    64    1
    69    35    65    1
    70    36    66    1
    71    36    67    1
    72    39    68    1
    73    40    69    1
    74    40    70    1
    75    40    71    1
    76    41    72    1
    77    42    73    1
    78    43    74    1
    79    43    75    1
    80    43    76    1
    81    44    77    1
@<TRIPOS>MOLECULE
2-[[2-[2-butyl-4-[(Z)-2-carboxy-3-(6-methoxy-1,3-benzodioxol-5-yl)prop-1-enyl]pyrazol-3-yl]-5-methoxyphenoxy]methyl]benzoic acid
 77 81 0 0 0
SMALL
GASTEIGER

@<TRIPOS>ATOM
      1 O           3.8227    1.2944    6.2525 O.3     1  LIG1       -0.4866
      2 O           0.8433   -5.7954   11.2841 O.3     1  LIG1       -0.4526
      3 O          -0.7702   -7.2963   10.3036 O.3     1  LIG1       -0.4525
      4 O          -2.2735   -3.8448    7.2102 O.3     1  LIG1       -0.4947
      5 O           7.7218   -0.5674    4.5157 O.3     1  LIG1       -0.4950
      6 O           2.5341   -1.0674   10.0073 O.co2   1  LIG1       -0.5449
      7 O           0.4060   -0.5834   10.6687 O.co2   1  LIG1       -0.5449
      8 O           1.0981    4.1580    4.6663 O.co2   1  LIG1       -0.5446
      9 O          -0.3066    4.9142    6.2700 O.co2   1  LIG1       -0.5446
     10 N           1.2445   -0.8272    3.7949 N.ar    1  LIG1       -0.2630
     11 N          -0.0701   -0.7029    4.0618 N.ar    1  LIG1       -0.1785
     12 C           2.0588   -0.7325    4.9213 C.ar    1  LIG1        0.0795
     13 C           1.6540   -1.1705    2.4409 C.3     1  LIG1        0.0422
     14 C           0.5540   -1.1988    1.3670 C.3     1  LIG1       -0.0336
     15 C           1.1646   -0.6870    5.9885 C.ar    1  LIG1        0.0207
     16 C           3.5313   -0.6940    4.8611 C.ar    1  LIG1        0.0425
     17 C           0.9907   -2.0330    0.1588 C.3     1  LIG1       -0.0542
     18 C          -0.1017   -0.5459    5.3849 C.ar    1  LIG1        0.0571
     19 C           1.4796   -0.6765    7.3863 C.2     1  LIG1       -0.0459
     20 C          -0.5169   -1.9920    8.3437 C.3     1  LIG1        0.0029
     21 C           4.3034    0.3581    5.3809 C.ar    1  LIG1        0.1336
     22 C           0.7752   -1.2170    8.4081 C.2     1  LIG1       -0.0200
     23 C          -0.5249   -3.4619    8.7752 C.ar    1  LIG1        0.0023
     24 C           4.2188   -1.7567    4.2460 C.ar    1  LIG1       -0.0456
     25 C          -0.0871   -2.0797   -0.9136 C.3     1  LIG1       -0.0652
     26 C           5.7010    0.3537    5.2402 C.ar    1  LIG1        0.0224
     27 C          -1.4838   -4.3589    8.2090 C.ar    1  LIG1        0.1273
     28 C           0.2959   -3.9234    9.8218 C.ar    1  LIG1       -0.0092
     29 C           5.6106   -1.7500    4.0922 C.ar    1  LIG1       -0.0191
     30 C           0.1492   -5.2187   10.2640 C.ar    1  LIG1        0.1667
     31 C           6.3600   -0.6873    4.5853 C.ar    1  LIG1        0.1236
     32 C          -0.7681   -6.0705    9.7056 C.ar    1  LIG1        0.1697
     33 C          -1.5893   -5.6792    8.6717 C.ar    1  LIG1        0.0258
     34 C           1.2987   -0.8905    9.8194 C.2     1  LIG1        0.0680
     35 C           3.0853    2.3973    5.6959 C.3     1  LIG1        0.1153
     36 C           0.2077   -7.0823   11.3423 C.3     1  LIG1        0.2332
     37 C           3.0326    3.4857    6.7656 C.ar    1  LIG1       -0.0016
     38 C           1.9379    4.3764    6.8868 C.ar    1  LIG1        0.0037
     39 C           4.1031    3.6067    7.6807 C.ar    1  LIG1       -0.0547
     40 C          -3.3745   -4.6228    6.7673 C.3     1  LIG1        0.0788
     41 C           1.9037    5.2544    7.9930 C.ar    1  LIG1       -0.0525
     42 C           4.0629    4.5120    8.7417 C.ar    1  LIG1       -0.0614
     43 C           8.4372   -1.7114    4.0689 C.3     1  LIG1        0.0788
     44 C           2.9503    5.3209    8.9133 C.ar    1  LIG1       -0.0611
     45 C           0.8121    4.4606    5.8660 C.2     1  LIG1        0.0720
     46 H           2.0790   -2.1756    2.5123 H       1  LIG1        0.0509
     47 H           2.4437   -0.4697    2.1469 H       1  LIG1        0.0509
     48 H           0.3169   -0.1742    1.0584 H       1  LIG1        0.0283
     49 H          -0.3691   -1.6369    1.7638 H       1  LIG1        0.0283
     50 H           1.2046   -3.0593    0.4818 H       1  LIG1        0.0263
     51 H           1.9149   -1.6287   -0.2684 H       1  LIG1        0.0263
     52 H          -1.0539   -0.3578    5.8605 H       1  LIG1        0.0854
     53 H           2.3957   -0.1551    7.6577 H       1  LIG1        0.0628
     54 H          -0.8792   -1.9729    7.3160 H       1  LIG1        0.0363
     55 H          -1.2866   -1.4707    8.9293 H       1  LIG1        0.0363
     56 H           3.6710   -2.6304    3.9055 H       1  LIG1        0.0626
     57 H          -1.0299   -2.4618   -0.5088 H       1  LIG1        0.0230
     58 H           0.2208   -2.7401   -1.7309 H       1  LIG1        0.0230
     59 H          -0.2684   -1.0841   -1.3296 H       1  LIG1        0.0230
     60 H           6.2776    1.1561    5.6921 H       1  LIG1        0.0691
     61 H           1.0186   -3.2857   10.3174 H       1  LIG1        0.0659
     62 H           6.0706   -2.5977    3.5998 H       1  LIG1        0.0654
     63 H          -2.2943   -6.3895    8.2660 H       1  LIG1        0.0692
     64 H           2.0806    2.0433    5.4592 H       1  LIG1        0.0748
     65 H           3.5836    2.7874    4.8011 H       1  LIG1        0.0748
     66 H          -0.2869   -7.1835   12.3144 H       1  LIG1        0.1166
     67 H           0.9792   -7.8563   11.2610 H       1  LIG1        0.1166
     68 H           4.9667    2.9511    7.5920 H       1  LIG1        0.0622
     69 H          -3.9311   -4.0296    6.0355 H       1  LIG1        0.0660
     70 H          -4.0543   -4.8540    7.5937 H       1  LIG1        0.0660
     71 H          -3.0374   -5.5355    6.2646 H       1  LIG1        0.0660
     72 H           1.0321    5.8985    8.1245 H       1  LIG1        0.0624
     73 H           4.8867    4.5532    9.4462 H       1  LIG1        0.0618
     74 H           9.5062   -1.4981    4.1682 H       1  LIG1        0.0660
     75 H           8.2359   -1.9107    3.0106 H       1  LIG1        0.0660
     76 H           8.2161   -2.5888    4.6850 H       1  LIG1        0.0660
     77 H           2.8873    5.9984    9.7562 H       1  LIG1        0.0618
@<TRIPOS>BOND
     1     1    35    1
     2     1    21    1
     3     2    36    1
     4     2    30    1
     5     3    32    1
     6     3    36    1
     7     4    27    1
     8     4    40    1
     9     5    31    1
    10     5    43    1
    11     6    34   ar
    12     7    34   ar
    13     8    45   ar
    14     9    45   ar
    15    10    11   ar
    16    10    12   ar
    17    10    13    1
    18    11    18   ar
    19    12    15   ar
    20    13    14    1
    21    14    17    1
    22    15    18   ar
    23    15    19    1
    24    16    24   ar
    25    16    21   ar
    26    16    12    1
    27    17    25    1
    28    19    22    2
    29    20    22    1
    30    20    23    1
    31    21    26   ar
    32    22    34    1
    33    23    28   ar
    34    23    27   ar
    35    24    29   ar
    36    26    31   ar
    37    27    33   ar
    38    28    30   ar
    39    29    31   ar
    40    30    32   ar
    41    32    33   ar
    42    35    37    1
    43    37    39   ar
    44    37    38   ar
    45    38    41   ar
    46    38    45    1
    47    39    42   ar
    48    41    44   ar
    49    42    44   ar
    50    13    46    1
    51    13    47    1
    52    14    48    1
    53    14    49    1
    54    17    50    1
    55    17    51    1
    56    18    52    1
    57    19    53    1
    58    20    54    1
    59    20    55    1
    60    24    56    1
    61    25    57    1
    62    25    58    1
    63    25    59    1
    64    26    60    1
    65    28    61    1
    66    29    62    1
    67    33    63    1
    68    35    64    1
    69    35    65    1
    70    36    66    1
    71    36    67    1
    72    39    68    1
    73    40    69    1
    74    40    70    1
    75    40    71    1
    76    41    72    1
    77    42    73    1
    78    43    74    1
    79    43    75    1
    80    43    76    1
    81    44    77    1
@<TRIPOS>MOLECULE
2-[[2-[2-butyl-4-[(Z)-2-carboxy-3-(6-methoxy-1,3-benzodioxol-5-yl)prop-1-enyl]pyrazol-3-yl]-5-methoxyphenoxy]methyl]benzoic acid
 77 81 0 0 0
SMALL
GASTEIGER

@<TRIPOS>ATOM
      1 O           3.8395    1.2297    6.3435 O.3     1  LIG1       -0.4866
      2 O           0.3782   -6.6800    7.7206 O.3     1  LIG1       -0.4526
      3 O          -1.1688   -7.4025    9.4273 O.3     1  LIG1       -0.4525
      4 O          -2.4561   -2.8951   10.4629 O.3     1  LIG1       -0.4947
      5 O           7.7434   -0.5671    4.5446 O.3     1  LIG1       -0.4950
      6 O           0.9384   -1.0825   10.8268 O.co2   1  LIG1       -0.5449
      7 O           2.7149   -2.0780    9.7952 O.co2   1  LIG1       -0.5449
      8 O           0.9280    3.9888    4.8814 O.co2   1  LIG1       -0.5446
      9 O          -0.4238    4.6485    6.5744 O.co2   1  LIG1       -0.5446
     10 N           1.2617   -0.8238    3.8592 N.ar    1  LIG1       -0.2630
     11 N          -0.0433   -0.6821    4.1494 N.ar    1  LIG1       -0.1785
     12 C           2.0890   -0.7775    4.9762 C.ar    1  LIG1        0.0795
     13 C           1.6525   -1.1900    2.5058 C.3     1  LIG1        0.0422
     14 C           0.5826   -1.1101    1.4060 C.3     1  LIG1       -0.0336
     15 C           1.2122   -0.7860    6.0581 C.ar    1  LIG1        0.0207
     16 C           3.5589   -0.7321    4.9045 C.ar    1  LIG1        0.0425
     17 C           0.8227   -2.1169    0.2723 C.3     1  LIG1       -0.0542
     18 C          -0.0556   -0.5760    5.4789 C.ar    1  LIG1        0.0571
     19 C           1.5820   -0.9291    7.4349 C.2     1  LIG1       -0.0459
     20 C          -0.5782   -1.8672    8.4927 C.3     1  LIG1        0.0029
     21 C           4.3237    0.3131    5.4507 C.ar    1  LIG1        0.1336
     22 C           0.8532   -1.4025    8.4701 C.2     1  LIG1       -0.0200
     23 C          -0.7600   -3.3437    8.7969 C.ar    1  LIG1        0.0023
     24 C           4.2479   -1.7732    4.2575 C.ar    1  LIG1       -0.0456
     25 C           2.1781   -1.9886   -0.4040 C.3     1  LIG1       -0.0652
     26 C           5.7201    0.3220    5.3030 C.ar    1  LIG1        0.0224
     27 C          -1.6740   -3.7908    9.7793 C.ar    1  LIG1        0.1273
     28 C          -0.0388   -4.3003    8.0560 C.ar    1  LIG1       -0.0092
     29 C           5.6390   -1.7525    4.1000 C.ar    1  LIG1       -0.0191
     30 C          -0.2363   -5.6347    8.3389 C.ar    1  LIG1        0.1667
     31 C           6.3827   -0.6981    4.6190 C.ar    1  LIG1        0.1236
     32 C          -1.1219   -6.0468    9.3078 C.ar    1  LIG1        0.1697
     33 C          -1.8667   -5.1510   10.0392 C.ar    1  LIG1        0.0258
     34 C           1.5821   -1.5137    9.8266 C.2     1  LIG1        0.0680
     35 C           3.0455    2.3077    5.8121 C.3     1  LIG1        0.1153
     36 C          -0.1745   -7.7853    8.4563 C.3     1  LIG1        0.2332
     37 C           3.0069    3.4086    6.8701 C.ar    1  LIG1       -0.0016
     38 C           1.8806    4.2471    7.0509 C.ar    1  LIG1        0.0037
     39 C           4.1270    3.5963    7.7106 C.ar    1  LIG1       -0.0547
     40 C          -1.8476   -2.5697   11.7165 C.3     1  LIG1        0.0788
     41 C           1.8708    5.1416    8.1442 C.ar    1  LIG1       -0.0525
     42 C           4.1111    4.5191    8.7571 C.ar    1  LIG1       -0.0614
     43 C           8.4647   -1.7022    4.0845 C.3     1  LIG1        0.0788
     44 C           2.9705    5.2739    8.9913 C.ar    1  LIG1       -0.0611
     45 C           0.6964    4.2669    6.1032 C.2     1  LIG1        0.0720
     46 H           1.9878   -2.2300    2.5828 H       1  LIG1        0.0509
     47 H           2.5053   -0.5602    2.2300 H       1  LIG1        0.0509
     48 H           0.5535   -0.0912    1.0019 H       1  LIG1        0.0283
     49 H          -0.4172   -1.3164    1.8036 H       1  LIG1        0.0283
     50 H           0.0363   -1.9914   -0.4814 H       1  LIG1        0.0263
     51 H           0.7174   -3.1358    0.6657 H       1  LIG1        0.0263
     52 H          -1.0005   -0.3780    5.9631 H       1  LIG1        0.0854
     53 H           2.6180   -0.6750    7.6673 H       1  LIG1        0.0628
     54 H          -1.0849   -1.7075    7.5414 H       1  LIG1        0.0363
     55 H          -1.1294   -1.2440    9.2061 H       1  LIG1        0.0363
     56 H           3.7035   -2.6398    3.8930 H       1  LIG1        0.0626
     57 H           2.3222   -0.9831   -0.8096 H       1  LIG1        0.0230
     58 H           2.2513   -2.7033   -1.2307 H       1  LIG1        0.0230
     59 H           2.9961   -2.2053    0.2899 H       1  LIG1        0.0230
     60 H           6.2944    1.1180    5.7699 H       1  LIG1        0.0691
     61 H           0.6685   -3.9933    7.2913 H       1  LIG1        0.0659
     62 H           6.1031   -2.5848    3.5838 H       1  LIG1        0.0654
     63 H          -2.5749   -5.4807   10.7868 H       1  LIG1        0.0692
     64 H           2.0414    1.9244    5.6256 H       1  LIG1        0.0748
     65 H           3.4892    2.7023    4.8910 H       1  LIG1        0.0748
     66 H           0.6398   -8.3056    8.9742 H       1  LIG1        0.1166
     67 H          -0.6358   -8.4808    7.7459 H       1  LIG1        0.1166
     68 H           5.0159    2.9861    7.5696 H       1  LIG1        0.0622
     69 H          -2.0058   -1.5043   11.9071 H       1  LIG1        0.0660
     70 H          -0.7743   -2.7825   11.7584 H       1  LIG1        0.0660
     71 H          -2.3529   -3.1376   12.5045 H       1  LIG1        0.0660
     72 H           0.9799    5.7426    8.3206 H       1  LIG1        0.0624
     73 H           4.9771    4.6194    9.4023 H       1  LIG1        0.0618
     74 H           9.5326   -1.4840    4.1836 H       1  LIG1        0.0660
     75 H           8.2624   -1.8927    3.0253 H       1  LIG1        0.0660
     76 H           8.2500   -2.5873    4.6931 H       1  LIG1        0.0660
     77 H           2.9290    5.9665    9.8247 H       1  LIG1        0.0618
@<TRIPOS>BOND
     1     1    35    1
     2     1    21    1
     3     2    36    1
     4     2    30    1
     5     3    32    1
     6     3    36    1
     7     4    27    1
     8     4    40    1
     9     5    31    1
    10     5    43    1
    11     6    34   ar
    12     7    34   ar
    13     8    45   ar
    14     9    45   ar
    15    10    11   ar
    16    10    12   ar
    17    10    13    1
    18    11    18   ar
    19    12    15   ar
    20    13    14    1
    21    14    17    1
    22    15    18   ar
    23    15    19    1
    24    16    24   ar
    25    16    21   ar
    26    16    12    1
    27    17    25    1
    28    19    22    2
    29    20    22    1
    30    20    23    1
    31    21    26   ar
    32    22    34    1
    33    23    28   ar
    34    23    27   ar
    35    24    29   ar
    36    26    31   ar
    37    27    33   ar
    38    28    30   ar
    39    29    31   ar
    40    30    32   ar
    41    32    33   ar
    42    35    37    1
    43    37    39   ar
    44    37    38   ar
    45    38    41   ar
    46    38    45    1
    47    39    42   ar
    48    41    44   ar
    49    42    44   ar
    50    13    46    1
    51    13    47    1
    52    14    48    1
    53    14    49    1
    54    17    50    1
    55    17    51    1
    56    18    52    1
    57    19    53    1
    58    20    54    1
    59    20    55    1
    60    24    56    1
    61    25    57    1
    62    25    58    1
    63    25    59    1
    64    26    60    1
    65    28    61    1
    66    29    62    1
    67    33    63    1
    68    35    64    1
    69    35    65    1
    70    36    66    1
    71    36    67    1
    72    39    68    1
    73    40    69    1
    74    40    70    1
    75    40    71    1
    76    41    72    1
    77    42    73    1
    78    43    74    1
    79    43    75    1
    80    43    76    1
    81    44    77    1
@<TRIPOS>MOLECULE
2-[[2-[2-butyl-4-[(Z)-2-carboxy-3-(6-methoxy-1,3-benzodioxol-5-yl)prop-1-enyl]pyrazol-3-yl]-5-methoxyphenoxy]methyl]benzoic acid
 77 81 0 0 0
SMALL
GASTEIGER

@<TRIPOS>ATOM
      1 O           3.9133    1.2672    6.2969 O.3     1  LIG1       -0.4866
      2 O          -2.4687   -5.1783   11.4112 O.3     1  LIG1       -0.4526
      3 O          -1.4475   -7.0991   10.3643 O.3     1  LIG1       -0.4525
      4 O           0.4808   -4.3224    6.8655 O.3     1  LIG1       -0.4947
      5 O           7.8157   -0.6167    4.5880 O.3     1  LIG1       -0.4950
      6 O           0.5097   -1.0909   10.6194 O.co2   1  LIG1       -0.5449
      7 O           2.5219   -1.8378    9.8356 O.co2   1  LIG1       -0.5449
      8 O           1.0523    4.0610    4.7847 O.co2   1  LIG1       -0.5446
      9 O          -0.3247    4.7708    6.4309 O.co2   1  LIG1       -0.5446
     10 N           1.3643   -0.7642    3.7408 N.ar    1  LIG1       -0.2630
     11 N           0.0513   -0.5944    3.9815 N.ar    1  LIG1       -0.1785
     12 C           2.1546   -0.7147    4.8849 C.ar    1  LIG1        0.0795
     13 C           1.7905   -1.1773    2.4124 C.3     1  LIG1        0.0422
     14 C           0.7852   -1.0424    1.2607 C.3     1  LIG1       -0.0336
     15 C           1.2416   -0.7076    5.9324 C.ar    1  LIG1        0.0207
     16 C           3.6243   -0.7015    4.8650 C.ar    1  LIG1        0.0425
     17 C           0.7295    0.3527    0.6389 C.3     1  LIG1       -0.0542
     18 C          -0.0051   -0.4855    5.3098 C.ar    1  LIG1        0.0571
     19 C           1.5396   -0.8458    7.3268 C.2     1  LIG1       -0.0459
     20 C          -0.5987   -2.0130    8.1062 C.3     1  LIG1        0.0029
     21 C           4.3945    0.3343    5.4202 C.ar    1  LIG1        0.1336
     22 C           0.7661   -1.4086    8.2815 C.2     1  LIG1       -0.0200
     23 C          -0.7756   -3.4138    8.6633 C.ar    1  LIG1        0.0023
     24 C           4.3071   -1.7667    4.2509 C.ar    1  LIG1       -0.0456
     25 C           1.9816    0.6895   -0.1604 C.3     1  LIG1       -0.0652
     26 C           5.7939    0.3137    5.3015 C.ar    1  LIG1        0.0224
     27 C          -0.1884   -4.5457    8.0416 C.ar    1  LIG1        0.1273
     28 C          -1.5487   -3.5740    9.8284 C.ar    1  LIG1       -0.0092
     29 C           5.7006   -1.7750    4.1235 C.ar    1  LIG1       -0.0191
     30 C          -1.7238   -4.8433   10.3244 C.ar    1  LIG1        0.1667
     31 C           6.4521   -0.7252    4.6408 C.ar    1  LIG1        0.1236
     32 C          -1.1454   -5.9351    9.7231 C.ar    1  LIG1        0.1697
     33 C          -0.3723   -5.8228    8.5861 C.ar    1  LIG1        0.0258
     34 C           1.3274   -1.4357    9.7160 C.2     1  LIG1        0.0680
     35 C           3.1230    2.3455    5.7598 C.3     1  LIG1        0.1153
     36 C          -2.2548   -6.5988   11.4500 C.3     1  LIG1        0.2332
     37 C           3.0730    3.4464    6.8188 C.ar    1  LIG1       -0.0016
     38 C           1.9576    4.3057    6.9707 C.ar    1  LIG1        0.0037
     39 C           4.1711    3.6108    7.6945 C.ar    1  LIG1       -0.0547
     40 C           1.5337   -5.2259    6.5651 C.3     1  LIG1        0.0788
     41 C           1.9360    5.2006    8.0623 C.ar    1  LIG1       -0.0525
     42 C           4.1423    4.5310    8.7432 C.ar    1  LIG1       -0.0614
     43 C           8.5242   -1.7451    4.0933 C.3     1  LIG1        0.0788
     44 C           3.0113    5.3098    8.9434 C.ar    1  LIG1       -0.0611
     45 C           0.7997    4.3566    5.9949 C.2     1  LIG1        0.0720
     46 H           2.0135   -2.2466    2.5127 H       1  LIG1        0.0509
     47 H           2.7220   -0.6543    2.1823 H       1  LIG1        0.0509
     48 H          -0.2203   -1.3359    1.5839 H       1  LIG1        0.0283
     49 H           1.0655   -1.7580    0.4763 H       1  LIG1        0.0283
     50 H           0.5621    1.1123    1.4096 H       1  LIG1        0.0263
     51 H          -0.1292    0.3905   -0.0423 H       1  LIG1        0.0263
     52 H          -0.9620   -0.2890    5.7731 H       1  LIG1        0.0854
     53 H           2.5184   -0.4850    7.6453 H       1  LIG1        0.0628
     54 H          -0.8951   -2.0823    7.0574 H       1  LIG1        0.0363
     55 H          -1.3361   -1.3363    8.5583 H       1  LIG1        0.0363
     56 H           3.7512   -2.6247    3.8831 H       1  LIG1        0.0626
     57 H           2.8563    0.7980    0.4869 H       1  LIG1        0.0230
     58 H           1.8448    1.6339   -0.6960 H       1  LIG1        0.0230
     59 H           2.1973   -0.0887   -0.9005 H       1  LIG1        0.0230
     60 H           6.3734    1.1049    5.7704 H       1  LIG1        0.0691
     61 H          -1.9776   -2.7121   10.3308 H       1  LIG1        0.0659
     62 H           6.1589   -2.6233    3.6292 H       1  LIG1        0.0654
     63 H           0.0481   -6.7103    8.1359 H       1  LIG1        0.0692
     64 H           2.1190    1.9663    5.5659 H       1  LIG1        0.0748
     65 H           3.5759    2.7395    4.8432 H       1  LIG1        0.0748
     66 H          -3.2298   -7.0984   11.4130 H       1  LIG1        0.1166
     67 H          -1.7675   -6.8545   12.3979 H       1  LIG1        0.1166
     68 H           5.0519    2.9831    7.5808 H       1  LIG1        0.0622
     69 H           2.1527   -4.7748    5.7831 H       1  LIG1        0.0660
     70 H           1.1283   -6.1610    6.1646 H       1  LIG1        0.0660
     71 H           2.1754   -5.4186    7.4316 H       1  LIG1        0.0660
     72 H           1.0534    5.8216    8.2136 H       1  LIG1        0.0624
     73 H           4.9895    4.6107    9.4159 H       1  LIG1        0.0618
     74 H           9.5945   -1.5351    4.1820 H       1  LIG1        0.0660
     75 H           8.3066   -1.9131    3.0332 H       1  LIG1        0.0660
     76 H           8.3123   -2.6411    4.6867 H       1  LIG1        0.0660
     77 H           2.9588    6.0011    9.7772 H       1  LIG1        0.0618
@<TRIPOS>BOND
     1     1    35    1
     2     1    21    1
     3     2    36    1
     4     2    30    1
     5     3    32    1
     6     3    36    1
     7     4    27    1
     8     4    40    1
     9     5    31    1
    10     5    43    1
    11     6    34   ar
    12     7    34   ar
    13     8    45   ar
    14     9    45   ar
    15    10    11   ar
    16    10    12   ar
    17    10    13    1
    18    11    18   ar
    19    12    15   ar
    20    13    14    1
    21    14    17    1
    22    15    18   ar
    23    15    19    1
    24    16    24   ar
    25    16    21   ar
    26    16    12    1
    27    17    25    1
    28    19    22    2
    29    20    22    1
    30    20    23    1
    31    21    26   ar
    32    22    34    1
    33    23    28   ar
    34    23    27   ar
    35    24    29   ar
    36    26    31   ar
    37    27    33   ar
    38    28    30   ar
    39    29    31   ar
    40    30    32   ar
    41    32    33   ar
    42    35    37    1
    43    37    39   ar
    44    37    38   ar
    45    38    41   ar
    46    38    45    1
    47    39    42   ar
    48    41    44   ar
    49    42    44   ar
    50    13    46    1
    51    13    47    1
    52    14    48    1
    53    14    49    1
    54    17    50    1
    55    17    51    1
    56    18    52    1
    57    19    53    1
    58    20    54    1
    59    20    55    1
    60    24    56    1
    61    25    57    1
    62    25    58    1
    63    25    59    1
    64    26    60    1
    65    28    61    1
    66    29    62    1
    67    33    63    1
    68    35    64    1
    69    35    65    1
    70    36    66    1
    71    36    67    1
    72    39    68    1
    73    40    69    1
    74    40    70    1
    75    40    71    1
    76    41    72    1
    77    42    73    1
    78    43    74    1
    79    43    75    1
    80    43    76    1
    81    44    77    1
@<TRIPOS>MOLECULE
2-[[2-[2-butyl-4-[(Z)-2-carboxy-3-(6-methoxy-1,3-benzodioxol-5-yl)prop-1-enyl]pyrazol-3-yl]-5-methoxyphenoxy]methyl]benzoic acid
 77 81 0 0 0
SMALL
GASTEIGER

@<TRIPOS>ATOM
      1 O           4.3559   -1.2245    2.2473 O.3     1  LIG1       -0.4866
      2 O           6.5086    1.5622   11.9084 O.3     1  LIG1       -0.4526
      3 O           6.0500    3.7858   11.0938 O.3     1  LIG1       -0.4525
      4 O           3.0095    2.1088    7.7216 O.3     1  LIG1       -0.4947
      5 O           8.1036    1.0073    4.3246 O.3     1  LIG1       -0.4950
      6 O           1.9503   -0.8529   10.6541 O.co2   1  LIG1       -0.5449
      7 O           0.0943   -1.1801    9.3880 O.co2   1  LIG1       -0.5449
      8 O           4.5951   -4.1994    2.2563 O.co2   1  LIG1       -0.5446
      9 O           6.7606   -3.7047    2.7745 O.co2   1  LIG1       -0.5446
     10 N           1.7745   -0.8674    3.5583 N.ar    1  LIG1       -0.2630
     11 N           0.5938   -0.2041    3.6152 N.ar    1  LIG1       -0.1785
     12 C           2.6077   -0.5517    4.6379 C.ar    1  LIG1        0.0795
     13 C           1.8587   -2.0224    2.6757 C.3     1  LIG1        0.0422
     14 C           0.6764   -2.9912    2.7673 C.3     1  LIG1       -0.0336
     15 C           1.6399   -0.4445    5.6636 C.ar    1  LIG1        0.0207
     16 C           4.0863   -0.3250    4.4757 C.ar    1  LIG1        0.0425
     17 C           0.8281   -4.0888    1.7114 C.3     1  LIG1       -0.0542
     18 C           0.4528   -0.0927    4.9322 C.ar    1  LIG1        0.0571
     19 C           1.4878   -0.5626    7.0954 C.2     1  LIG1       -0.0459
     20 C           3.6511   -0.6504    8.5185 C.3     1  LIG1        0.0029
     21 C           4.8859   -0.5669    3.3233 C.ar    1  LIG1        0.1336
     22 C           2.1793   -0.6649    8.2514 C.2     1  LIG1       -0.0200
     23 C           4.2126    0.6212    9.1679 C.ar    1  LIG1        0.0023
     24 C           4.7282    0.3825    5.4942 C.ar    1  LIG1       -0.0456
     25 C          -0.1239   -5.2444    1.9590 C.3     1  LIG1       -0.0652
     26 C           6.2467   -0.1829    3.2840 C.ar    1  LIG1        0.0224
     27 C           3.9389    1.9457    8.7170 C.ar    1  LIG1        0.1273
     28 C           5.0968    0.4475   10.2565 C.ar    1  LIG1       -0.0092
     29 C           6.0664    0.7869    5.4536 C.ar    1  LIG1       -0.0191
     30 C           5.6610    1.5599   10.8420 C.ar    1  LIG1        0.1667
     31 C           6.8199    0.5355    4.3254 C.ar    1  LIG1        0.1236
     32 C           5.3995    2.8263   10.3817 C.ar    1  LIG1        0.1697
     33 C           4.5462    3.0544    9.3273 C.ar    1  LIG1        0.0258
     34 C           1.3214   -0.9136    9.5576 C.2     1  LIG1        0.0680
     35 C           4.7854   -0.8947    0.9311 C.3     1  LIG1        0.1153
     36 C           6.6819    2.9781   12.1048 C.3     1  LIG1        0.2332
     37 C           5.5215   -1.9621    0.1328 C.ar    1  LIG1       -0.0016
     38 C           5.9683   -3.2048    0.6239 C.ar    1  LIG1        0.0037
     39 C           5.7833   -1.6606   -1.2239 C.ar    1  LIG1       -0.0547
     40 C           3.1980    3.2045    6.8370 C.3     1  LIG1        0.0788
     41 C           6.6666   -4.0850   -0.2329 C.ar    1  LIG1       -0.0525
     42 C           6.4636   -2.5501   -2.0620 C.ar    1  LIG1       -0.0614
     43 C           8.4537    1.6455    3.1001 C.3     1  LIG1        0.0788
     44 C           6.9113   -3.7648   -1.5633 C.ar    1  LIG1       -0.0611
     45 C           5.7433   -3.7058    2.0228 C.2     1  LIG1        0.0720
     46 H           2.7422   -2.5869    2.9613 H       1  LIG1        0.0509
     47 H           1.9498   -1.6281    1.6609 H       1  LIG1        0.0509
     48 H          -0.2790   -2.4736    2.6144 H       1  LIG1        0.0283
     49 H           0.6454   -3.4263    3.7729 H       1  LIG1        0.0283
     50 H           1.8517   -4.4718    1.7078 H       1  LIG1        0.0263
     51 H           0.6402   -3.6650    0.7184 H       1  LIG1        0.0263
     52 H          -0.5069    0.2043    5.3323 H       1  LIG1        0.0854
     53 H           0.4114   -0.6130    7.3051 H       1  LIG1        0.0628
     54 H           4.2286   -0.9010    7.6275 H       1  LIG1        0.0363
     55 H           3.8707   -1.5063    9.1758 H       1  LIG1        0.0363
     56 H           4.1485    0.6670    6.3532 H       1  LIG1        0.0626
     57 H           0.0882   -5.7214    2.9196 H       1  LIG1        0.0230
     58 H          -0.0092   -5.9995    1.1740 H       1  LIG1        0.0230
     59 H          -1.1654   -4.9071    1.9612 H       1  LIG1        0.0230
     60 H           6.8659   -0.4879    2.4487 H       1  LIG1        0.0691
     61 H           5.3005   -0.5417   10.6510 H       1  LIG1        0.0659
     62 H           6.4935    1.3174    6.3008 H       1  LIG1        0.0654
     63 H           4.3373    4.0670    9.0190 H       1  LIG1        0.0692
     64 H           5.3554    0.0437    0.8991 H       1  LIG1        0.0748
     65 H           3.8619   -0.6856    0.3780 H       1  LIG1        0.0748
     66 H           7.7543    3.2003   12.1096 H       1  LIG1        0.1166
     67 H           6.2649    3.2523   13.0800 H       1  LIG1        0.1166
     68 H           5.4439   -0.7147   -1.6383 H       1  LIG1        0.0622
     69 H           2.6232    3.0033    5.9288 H       1  LIG1        0.0660
     70 H           4.2471    3.3257    6.5476 H       1  LIG1        0.0660
     71 H           2.8093    4.1276    7.2822 H       1  LIG1        0.0660
     72 H           7.0068   -5.0360    0.1738 H       1  LIG1        0.0624
     73 H           6.6411   -2.2916   -3.1003 H       1  LIG1        0.0618
     74 H           9.3665    2.2268    3.2767 H       1  LIG1        0.0660
     75 H           7.6764    2.3470    2.7721 H       1  LIG1        0.0660
     76 H           8.6717    0.9129    2.3171 H       1  LIG1        0.0660
     77 H           7.4423   -4.4677   -2.1967 H       1  LIG1        0.0618
@<TRIPOS>BOND
     1     1    35    1
     2     1    21    1
     3     2    36    1
     4     2    30    1
     5     3    32    1
     6     3    36    1
     7     4    27    1
     8     4    40    1
     9     5    31    1
    10     5    43    1
    11     6    34   ar
    12     7    34   ar
    13     8    45   ar
    14     9    45   ar
    15    10    11   ar
    16    10    12   ar
    17    10    13    1
    18    11    18   ar
    19    12    15   ar
    20    13    14    1
    21    14    17    1
    22    15    18   ar
    23    15    19    1
    24    16    24   ar
    25    16    21   ar
    26    16    12    1
    27    17    25    1
    28    19    22    2
    29    20    22    1
    30    20    23    1
    31    21    26   ar
    32    22    34    1
    33    23    28   ar
    34    23    27   ar
    35    24    29   ar
    36    26    31   ar
    37    27    33   ar
    38    28    30   ar
    39    29    31   ar
    40    30    32   ar
    41    32    33   ar
    42    35    37    1
    43    37    39   ar
    44    37    38   ar
    45    38    41   ar
    46    38    45    1
    47    39    42   ar
    48    41    44   ar
    49    42    44   ar
    50    13    46    1
    51    13    47    1
    52    14    48    1
    53    14    49    1
    54    17    50    1
    55    17    51    1
    56    18    52    1
    57    19    53    1
    58    20    54    1
    59    20    55    1
    60    24    56    1
    61    25    57    1
    62    25    58    1
    63    25    59    1
    64    26    60    1
    65    28    61    1
    66    29    62    1
    67    33    63    1
    68    35    64    1
    69    35    65    1
    70    36    66    1
    71    36    67    1
    72    39    68    1
    73    40    69    1
    74    40    70    1
    75    40    71    1
    76    41    72    1
    77    42    73    1
    78    43    74    1
    79    43    75    1
    80    43    76    1
    81    44    77    1
@<TRIPOS>MOLECULE
2-[[2-[2-butyl-4-[(Z)-2-carboxy-3-(6-methoxy-1,3-benzodioxol-5-yl)prop-1-enyl]pyrazol-3-yl]-5-methoxyphenoxy]methyl]benzoic acid
 77 81 0 0 0
SMALL
GASTEIGER

@<TRIPOS>ATOM
      1 O           4.3750    0.7507    6.7409 O.3     1  LIG1       -0.4866
      2 O          -4.9022    0.4700    6.9645 O.3     1  LIG1       -0.4526
      3 O          -5.5633    0.4018    9.2847 O.3     1  LIG1       -0.4525
      4 O          -1.5416   -1.9829   10.5080 O.3     1  LIG1       -0.4947
      5 O           7.8615   -0.3234    3.8528 O.3     1  LIG1       -0.4950
      6 O           1.6306   -1.8491    9.9592 O.co2   1  LIG1       -0.5449
      7 O           0.9645    0.3352   10.1155 O.co2   1  LIG1       -0.5449
      8 O           6.8913    2.8713    7.7922 O.co2   1  LIG1       -0.5446
      9 O           8.3100    3.3122    6.0961 O.co2   1  LIG1       -0.5446
     10 N           1.3336   -0.5091    3.7155 N.ar    1  LIG1       -0.2630
     11 N           0.1025    0.0310    3.8452 N.ar    1  LIG1       -0.1785
     12 C           2.2159   -0.0836    4.7187 C.ar    1  LIG1        0.0795
     13 C           1.5106   -1.5590    2.7237 C.3     1  LIG1        0.0422
     14 C           0.5936   -2.7758    2.9054 C.3     1  LIG1       -0.0336
     15 C           1.3011   -0.0386    5.7851 C.ar    1  LIG1        0.0207
     16 C           3.6973    0.0206    4.5126 C.ar    1  LIG1        0.0425
     17 C           0.9954   -3.6308    4.1106 C.3     1  LIG1       -0.0542
     18 C           0.0701    0.2639    5.1567 C.ar    1  LIG1        0.0571
     19 C           1.4627   -0.1449    7.2011 C.2     1  LIG1       -0.0459
     20 C          -0.5201   -1.7174    7.8264 C.3     1  LIG1        0.0029
     21 C           4.6616    0.3096    5.4873 C.ar    1  LIG1        0.1336
     22 C           0.6615   -0.8104    8.0687 C.2     1  LIG1       -0.0200
     23 C          -1.8782   -1.1876    8.2781 C.ar    1  LIG1        0.0023
     24 C           4.2227   -0.1015    3.2051 C.ar    1  LIG1       -0.0456
     25 C           0.1662   -4.9025    4.1937 C.3     1  LIG1       -0.0652
     26 C           6.0393    0.1481    5.2336 C.ar    1  LIG1        0.0224
     27 C          -2.3039   -1.2566    9.6304 C.ar    1  LIG1        0.1273
     28 C          -2.7500   -0.6181    7.3302 C.ar    1  LIG1       -0.0092
     29 C           5.5947   -0.2138    2.9288 C.ar    1  LIG1       -0.0191
     30 C          -3.9555   -0.1015    7.7581 C.ar    1  LIG1        0.1667
     31 C           6.5126   -0.1473    3.9617 C.ar    1  LIG1        0.1236
     32 C          -4.3330   -0.1427    9.0771 C.ar    1  LIG1        0.1697
     33 C          -3.5375   -0.7247   10.0361 C.ar    1  LIG1        0.0258
     34 C           1.1444   -0.7662    9.5223 C.2     1  LIG1        0.0680
     35 C           4.1939    2.1778    6.8867 C.3     1  LIG1        0.1153
     36 C          -5.9004    0.8114    7.9448 C.3     1  LIG1        0.2332
     37 C           4.6584    3.1807    5.8300 C.ar    1  LIG1       -0.0016
     38 C           5.9854    3.6621    5.7167 C.ar    1  LIG1        0.0037
     39 C           3.6747    3.6935    4.9505 C.ar    1  LIG1       -0.0547
     40 C          -1.3026   -1.3199   11.7487 C.3     1  LIG1        0.0788
     41 C           6.2636    4.6390    4.7327 C.ar    1  LIG1       -0.0525
     42 C           3.9750    4.6713    4.0010 C.ar    1  LIG1       -0.0614
     43 C           8.3966   -0.4063    2.5422 C.3     1  LIG1        0.0788
     44 C           5.2740    5.1475    3.8926 C.ar    1  LIG1       -0.0611
     45 C           7.1423    3.2266    6.6015 C.2     1  LIG1        0.0720
     46 H           2.5403   -1.9191    2.7491 H       1  LIG1        0.0509
     47 H           1.3300   -1.0929    1.7485 H       1  LIG1        0.0509
     48 H           0.6651   -3.3903    1.9991 H       1  LIG1        0.0283
     49 H          -0.4543   -2.4680    2.9976 H       1  LIG1        0.0283
     50 H           0.8704   -3.0623    5.0375 H       1  LIG1        0.0263
     51 H           2.0550   -3.9032    4.0387 H       1  LIG1        0.0263
     52 H          -0.8459    0.5996    5.6160 H       1  LIG1        0.0854
     53 H           2.3260    0.3373    7.6440 H       1  LIG1        0.0628
     54 H          -0.3465   -2.6874    8.3113 H       1  LIG1        0.0363
     55 H          -0.5865   -1.9728    6.7617 H       1  LIG1        0.0363
     56 H           3.5683   -0.1003    2.3400 H       1  LIG1        0.0626
     57 H          -0.8991   -4.6715    4.2922 H       1  LIG1        0.0230
     58 H           0.4685   -5.4954    5.0628 H       1  LIG1        0.0230
     59 H           0.3042   -5.5192    3.2996 H       1  LIG1        0.0230
     60 H           6.7468    0.3089    6.0471 H       1  LIG1        0.0691
     61 H          -2.5002   -0.5978    6.2773 H       1  LIG1        0.0659
     62 H           5.9007   -0.3580    1.9000 H       1  LIG1        0.0654
     63 H          -3.8759   -0.7917   11.0610 H       1  LIG1        0.0692
     64 H           4.5858    2.4593    7.8679 H       1  LIG1        0.0748
     65 H           3.1134    2.3266    7.0100 H       1  LIG1        0.0748
     66 H          -6.8437    0.3293    7.6630 H       1  LIG1        0.1166
     67 H          -6.0481    1.8976    7.9344 H       1  LIG1        0.1166
     68 H           2.6493    3.3332    5.0232 H       1  LIG1        0.0622
     69 H          -0.3746   -1.7141   12.1730 H       1  LIG1        0.0660
     70 H          -2.1114   -1.5494   12.4507 H       1  LIG1        0.0660
     71 H          -1.2000   -0.2348   11.6387 H       1  LIG1        0.0660
     72 H           7.2832    5.0143    4.6462 H       1  LIG1        0.0624
     73 H           3.1928    5.0618    3.3579 H       1  LIG1        0.0618
     74 H           9.4848   -0.4859    2.6275 H       1  LIG1        0.0660
     75 H           8.1722    0.4949    1.9620 H       1  LIG1        0.0660
     76 H           8.0404   -1.3048    2.0266 H       1  LIG1        0.0660
     77 H           5.5247    5.9133    3.1671 H       1  LIG1        0.0618
@<TRIPOS>BOND
     1     1    35    1
     2     1    21    1
     3     2    36    1
     4     2    30    1
     5     3    32    1
     6     3    36    1
     7     4    27    1
     8     4    40    1
     9     5    31    1
    10     5    43    1
    11     6    34   ar
    12     7    34   ar
    13     8    45   ar
    14     9    45   ar
    15    10    11   ar
    16    10    12   ar
    17    10    13    1
    18    11    18   ar
    19    12    15   ar
    20    13    14    1
    21    14    17    1
    22    15    18   ar
    23    15    19    1
    24    16    24   ar
    25    16    21   ar
    26    16    12    1
    27    17    25    1
    28    19    22    2
    29    20    22    1
    30    20    23    1
    31    21    26   ar
    32    22    34    1
    33    23    28   ar
    34    23    27   ar
    35    24    29   ar
    36    26    31   ar
    37    27    33   ar
    38    28    30   ar
    39    29    31   ar
    40    30    32   ar
    41    32    33   ar
    42    35    37    1
    43    37    39   ar
    44    37    38   ar
    45    38    41   ar
    46    38    45    1
    47    39    42   ar
    48    41    44   ar
    49    42    44   ar
    50    13    46    1
    51    13    47    1
    52    14    48    1
    53    14    49    1
    54    17    50    1
    55    17    51    1
    56    18    52    1
    57    19    53    1
    58    20    54    1
    59    20    55    1
    60    24    56    1
    61    25    57    1
    62    25    58    1
    63    25    59    1
    64    26    60    1
    65    28    61    1
    66    29    62    1
    67    33    63    1
    68    35    64    1
    69    35    65    1
    70    36    66    1
    71    36    67    1
    72    39    68    1
    73    40    69    1
    74    40    70    1
    75    40    71    1
    76    41    72    1
    77    42    73    1
    78    43    74    1
    79    43    75    1
    80    43    76    1
    81    44    77    1
@<TRIPOS>MOLECULE
2-[[2-[2-butyl-4-[(Z)-2-carboxy-3-(6-methoxy-1,3-benzodioxol-5-yl)prop-1-enyl]pyrazol-3-yl]-5-methoxyphenoxy]methyl]benzoic acid
 77 81 0 0 0
SMALL
GASTEIGER

@<TRIPOS>ATOM
      1 O           4.0848   -0.3600    2.2646 O.3     1  LIG1       -0.4866
      2 O          -2.7083    3.2356    9.6240 O.3     1  LIG1       -0.4526
      3 O          -3.2294    4.3396    7.5419 O.3     1  LIG1       -0.4525
      4 O           1.0822    3.1414    5.6637 O.3     1  LIG1       -0.4947
      5 O           7.9783    0.7236    4.6392 O.3     1  LIG1       -0.4950
      6 O           1.5219    0.4487   10.6388 O.co2   1  LIG1       -0.5449
      7 O           3.0522   -1.0220    9.8036 O.co2   1  LIG1       -0.5449
      8 O           2.6627   -1.3277   -0.5724 O.co2   1  LIG1       -0.5446
      9 O           2.8124    0.6704   -1.6272 O.co2   1  LIG1       -0.5446
     10 N           1.4800   -0.8300    3.8200 N.ar    1  LIG1       -0.2630
     11 N           0.2025   -0.4638    4.1057 N.ar    1  LIG1       -0.1785
     12 C           2.3862   -0.5365    4.8419 C.ar    1  LIG1        0.0795
     13 C           1.6576   -1.7631    2.7191 C.3     1  LIG1        0.0422
     14 C           0.7119   -2.9747    2.7395 C.3     1  LIG1       -0.0336
     15 C           1.5216   -0.4656    5.9477 C.ar    1  LIG1        0.0207
     16 C           3.8768   -0.3690    4.7184 C.ar    1  LIG1        0.0425
     17 C           1.0127   -3.9142    3.9136 C.3     1  LIG1       -0.0542
     18 C           0.2222   -0.3353    5.4270 C.ar    1  LIG1        0.0571
     19 C           1.7925   -0.6019    7.3410 C.2     1  LIG1       -0.0459
     20 C           1.7982    1.8394    8.0749 C.3     1  LIG1        0.0029
     21 C           4.6246   -0.2096    3.5243 C.ar    1  LIG1        0.1336
     22 C           1.8408    0.3544    8.2881 C.2     1  LIG1       -0.0200
     23 C           0.4289    2.4593    7.8464 C.ar    1  LIG1        0.0023
     24 C           4.6219   -0.2151    5.9100 C.ar    1  LIG1       -0.0456
     25 C           0.1258   -5.1475    3.8917 C.3     1  LIG1       -0.0652
     26 C           5.9791    0.1963    3.5654 C.ar    1  LIG1        0.0224
     27 C           0.1060    3.1023    6.6266 C.ar    1  LIG1        0.1273
     28 C          -0.5133    2.4540    8.8972 C.ar    1  LIG1       -0.0092
     29 C           5.9828    0.1309    5.9409 C.ar    1  LIG1       -0.0191
     30 C          -1.7140    3.1017    8.7047 C.ar    1  LIG1        0.1667
     31 C           6.6672    0.3558    4.7616 C.ar    1  LIG1        0.1236
     32 C          -2.0109    3.7295    7.5191 C.ar    1  LIG1        0.1697
     33 C          -1.1313    3.7450    6.4594 C.ar    1  LIG1        0.0258
     34 C           2.1661   -0.1214    9.7146 C.2     1  LIG1        0.0680
     35 C           4.7450   -1.3959    1.4919 C.3     1  LIG1        0.1153
     36 C          -3.6426    4.0500    8.8946 C.3     1  LIG1        0.2332
     37 C           5.4832   -0.8842    0.2685 C.ar    1  LIG1       -0.0016
     38 C           4.8170   -0.3495   -0.8569 C.ar    1  LIG1        0.0037
     39 C           6.8919   -0.9765    0.2439 C.ar    1  LIG1       -0.0547
     40 C           0.6251    3.0752    4.3157 C.3     1  LIG1        0.0788
     41 C           5.5887    0.1300   -1.9366 C.ar    1  LIG1       -0.0525
     42 C           7.6322   -0.5210   -0.8478 C.ar    1  LIG1       -0.0614
     43 C           8.7025    0.8933    5.8500 C.3     1  LIG1        0.0788
     44 C           6.9803    0.0444   -1.9355 C.ar    1  LIG1       -0.0611
     45 C           3.3079   -0.3204   -1.0019 C.2     1  LIG1        0.0720
     46 H           2.6640   -2.1666    2.7932 H       1  LIG1        0.0509
     47 H           1.5320   -1.1875    1.7989 H       1  LIG1        0.0509
     48 H           0.8453   -3.5272    1.8012 H       1  LIG1        0.0283
     49 H          -0.3362   -2.6557    2.7726 H       1  LIG1        0.0283
     50 H           0.8669   -3.3946    4.8663 H       1  LIG1        0.0263
     51 H           2.0623   -4.2296    3.8765 H       1  LIG1        0.0263
     52 H          -0.7057   -0.1880    5.9628 H       1  LIG1        0.0854
     53 H           1.9439   -1.6339    7.6627 H       1  LIG1        0.0628
     54 H           2.4744    2.0825    7.2465 H       1  LIG1        0.0363
     55 H           2.2520    2.3551    8.9324 H       1  LIG1        0.0363
     56 H           4.1542   -0.3313    6.8825 H       1  LIG1        0.0626
     57 H          -0.9306   -4.8714    3.9662 H       1  LIG1        0.0230
     58 H           0.3672   -5.7995    4.7372 H       1  LIG1        0.0230
     59 H           0.2709   -5.7192    2.9700 H       1  LIG1        0.0230
     60 H           6.4988    0.4166    2.6380 H       1  LIG1        0.0691
     61 H          -0.2871    1.9759    9.8469 H       1  LIG1        0.0659
     62 H           6.4449    0.2448    6.9161 H       1  LIG1        0.0654
     63 H          -1.3862    4.2718    5.5503 H       1  LIG1        0.0692
     64 H           4.0023   -2.1303    1.1701 H       1  LIG1        0.0748
     65 H           5.4263   -1.9882    2.1210 H       1  LIG1        0.0748
     66 H          -3.7708    4.9996    9.4276 H       1  LIG1        0.1166
     67 H          -4.6098    3.5365    8.8623 H       1  LIG1        0.1166
     68 H           7.4212   -1.4117    1.0887 H       1  LIG1        0.0622
     69 H           1.4440    2.6886    3.7021 H       1  LIG1        0.0660
     70 H           0.3801    4.0800    3.9584 H       1  LIG1        0.0660
     71 H          -0.2353    2.4087    4.1949 H       1  LIG1        0.0660
     72 H           5.0728    0.5574   -2.7959 H       1  LIG1        0.0624
     73 H           8.7142   -0.6058   -0.8437 H       1  LIG1        0.0618
     74 H           9.7292    1.1678    5.5879 H       1  LIG1        0.0660
     75 H           8.7458   -0.0409    6.4197 H       1  LIG1        0.0660
     76 H           8.2838    1.7068    6.4512 H       1  LIG1        0.0660
     77 H           7.5423    0.4096   -2.7885 H       1  LIG1        0.0618
@<TRIPOS>BOND
     1     1    35    1
     2     1    21    1
     3     2    36    1
     4     2    30    1
     5     3    32    1
     6     3    36    1
     7     4    27    1
     8     4    40    1
     9     5    31    1
    10     5    43    1
    11     6    34   ar
    12     7    34   ar
    13     8    45   ar
    14     9    45   ar
    15    10    11   ar
    16    10    12   ar
    17    10    13    1
    18    11    18   ar
    19    12    15   ar
    20    13    14    1
    21    14    17    1
    22    15    18   ar
    23    15    19    1
    24    16    24   ar
    25    16    21   ar
    26    16    12    1
    27    17    25    1
    28    19    22    2
    29    20    22    1
    30    20    23    1
    31    21    26   ar
    32    22    34    1
    33    23    28   ar
    34    23    27   ar
    35    24    29   ar
    36    26    31   ar
    37    27    33   ar
    38    28    30   ar
    39    29    31   ar
    40    30    32   ar
    41    32    33   ar
    42    35    37    1
    43    37    39   ar
    44    37    38   ar
    45    38    41   ar
    46    38    45    1
    47    39    42   ar
    48    41    44   ar
    49    42    44   ar
    50    13    46    1
    51    13    47    1
    52    14    48    1
    53    14    49    1
    54    17    50    1
    55    17    51    1
    56    18    52    1
    57    19    53    1
    58    20    54    1
    59    20    55    1
    60    24    56    1
    61    25    57    1
    62    25    58    1
    63    25    59    1
    64    26    60    1
    65    28    61    1
    66    29    62    1
    67    33    63    1
    68    35    64    1
    69    35    65    1
    70    36    66    1
    71    36    67    1
    72    39    68    1
    73    40    69    1
    74    40    70    1
    75    40    71    1
    76    41    72    1
    77    42    73    1
    78    43    74    1
    79    43    75    1
    80    43    76    1
    81    44    77    1
@<TRIPOS>MOLECULE
2-[[2-[2-butyl-4-[(Z)-2-carboxy-3-(6-methoxy-1,3-benzodioxol-5-yl)prop-1-enyl]pyrazol-3-yl]-5-methoxyphenoxy]methyl]benzoic acid
 77 81 0 0 0
SMALL
GASTEIGER

@<TRIPOS>ATOM
      1 O           4.3872    0.5678    2.6176 O.3     1  LIG1       -0.4866
      2 O          -3.4787    2.8623    7.3124 O.3     1  LIG1       -0.4526
      3 O          -5.5161    1.5737    7.3784 O.3     1  LIG1       -0.4525
      4 O          -3.0153   -2.5780    7.8822 O.3     1  LIG1       -0.4947
      5 O           7.7912    0.6697    5.9287 O.3     1  LIG1       -0.4950
      6 O           0.6147   -0.7624   10.2828 O.co2   1  LIG1       -0.5449
      7 O           1.6037    1.1568    9.5568 O.co2   1  LIG1       -0.5449
      8 O           6.9345   -2.5512    1.1398 O.co2   1  LIG1       -0.5446
      9 O           8.8754   -2.0081    2.1774 O.co2   1  LIG1       -0.5446
     10 N           1.7125   -0.8854    3.5466 N.ar    1  LIG1       -0.2630
     11 N           0.3921   -0.5801    3.5269 N.ar    1  LIG1       -0.1785
     12 C           2.3808   -0.3924    4.6570 C.ar    1  LIG1        0.0795
     13 C           2.1733   -1.7827    2.5087 C.3     1  LIG1        0.0422
     14 C           2.8719   -3.0627    2.9708 C.3     1  LIG1       -0.0336
     15 C           1.3315   -0.1343    5.5518 C.ar    1  LIG1        0.0207
     16 C           3.8522   -0.2917    4.8481 C.ar    1  LIG1        0.0425
     17 C           1.9354   -4.1362    3.5405 C.3     1  LIG1       -0.0542
     18 C           0.1609   -0.1664    4.7693 C.ar    1  LIG1        0.0571
     19 C           1.4281    0.1509    6.9536 C.2     1  LIG1       -0.0459
     20 C          -0.5987   -1.1859    7.7824 C.3     1  LIG1        0.0029
     21 C           4.7494    0.2832    3.9188 C.ar    1  LIG1        0.1336
     22 C           0.6162   -0.2998    7.9401 C.2     1  LIG1       -0.0200
     23 C          -1.9449   -0.4626    7.7397 C.ar    1  LIG1        0.0023
     24 C           4.3869   -0.6648    6.1004 C.ar    1  LIG1       -0.0456
     25 C           1.4464   -3.8641    4.9531 C.3     1  LIG1       -0.0652
     26 C           6.0530    0.6315    4.3110 C.ar    1  LIG1        0.0224
     27 C          -3.1534   -1.2147    7.7824 C.ar    1  LIG1        0.1273
     28 C          -2.0138    0.9386    7.6019 C.ar    1  LIG1       -0.0092
     29 C           5.7072   -0.3740    6.4652 C.ar    1  LIG1       -0.0191
     30 C          -3.2469    1.5345    7.4897 C.ar    1  LIG1        0.1667
     31 C           6.5265    0.2905    5.5698 C.ar    1  LIG1        0.1236
     32 C          -4.4064    0.7988    7.5259 C.ar    1  LIG1        0.1697
     33 C          -4.3945   -0.5701    7.6768 C.ar    1  LIG1        0.0258
     34 C           0.9802    0.0691    9.3995 C.2     1  LIG1        0.0680
     35 C           5.1456   -0.2632    1.6873 C.3     1  LIG1        0.1153
     36 C          -4.9110    2.8725    7.2067 C.3     1  LIG1        0.2332
     37 C           6.4004    0.3903    1.1398 C.ar    1  LIG1       -0.0016
     38 C           7.6442   -0.2831    1.1024 C.ar    1  LIG1        0.0037
     39 C           6.3205    1.7071    0.6471 C.ar    1  LIG1       -0.0547
     40 C          -4.1510   -3.3022    8.3327 C.3     1  LIG1        0.0788
     41 C           8.7785    0.4099    0.6369 C.ar    1  LIG1       -0.0525
     42 C           7.4524    2.3644    0.1627 C.ar    1  LIG1       -0.0614
     43 C           8.7031   -0.4014    5.6849 C.3     1  LIG1        0.0788
     44 C           8.6851    1.7197    0.1694 C.ar    1  LIG1       -0.0611
     45 C           7.8236   -1.7269    1.5214 C.2     1  LIG1        0.0720
     46 H           2.8066   -1.2000    1.8479 H       1  LIG1        0.0509
     47 H           1.3041   -2.0583    1.8972 H       1  LIG1        0.0509
     48 H           3.6760   -2.8515    3.6825 H       1  LIG1        0.0283
     49 H           3.3545   -3.4978    2.0865 H       1  LIG1        0.0283
     50 H           2.4835   -5.0860    3.5537 H       1  LIG1        0.0263
     51 H           1.0755   -4.2816    2.8763 H       1  LIG1        0.0263
     52 H          -0.8523    0.0686    5.0589 H       1  LIG1        0.0854
     53 H           2.2772    0.7648    7.2531 H       1  LIG1        0.0628
     54 H          -0.6207   -1.9317    8.5883 H       1  LIG1        0.0363
     55 H          -0.5133   -1.7776    6.8632 H       1  LIG1        0.0363
     56 H           3.7585   -1.1574    6.8415 H       1  LIG1        0.0626
     57 H           2.2711   -3.5823    5.6154 H       1  LIG1        0.0230
     58 H           0.9749   -4.7622    5.3657 H       1  LIG1        0.0230
     59 H           0.6933   -3.0751    4.9704 H       1  LIG1        0.0230
     60 H           6.7128    1.1665    3.6380 H       1  LIG1        0.0691
     61 H          -1.1196    1.5548    7.5674 H       1  LIG1        0.0659
     62 H           6.0654   -0.6310    7.4551 H       1  LIG1        0.0654
     63 H          -5.3343   -1.1059    7.6826 H       1  LIG1        0.0692
     64 H           4.4954   -0.4391    0.8219 H       1  LIG1        0.0748
     65 H           5.3175   -1.2384    2.1485 H       1  LIG1        0.0748
     66 H          -5.1855    3.2555    6.2154 H       1  LIG1        0.1166
     67 H          -5.3152    3.5510    7.9669 H       1  LIG1        0.1166
     68 H           5.3648    2.2261    0.6584 H       1  LIG1        0.0622
     69 H          -3.8313   -4.3258    8.5501 H       1  LIG1        0.0660
     70 H          -4.9142   -3.3540    7.5505 H       1  LIG1        0.0660
     71 H          -4.5606   -2.8791    9.2557 H       1  LIG1        0.0660
     72 H           9.7404   -0.1004    0.6386 H       1  LIG1        0.0624
     73 H           7.3711    3.3807   -0.2069 H       1  LIG1        0.0618
     74 H           9.7020    0.0313    5.5650 H       1  LIG1        0.0660
     75 H           8.4675   -0.9684    4.7791 H       1  LIG1        0.0660
     76 H           8.7225   -1.0684    6.5546 H       1  LIG1        0.0660
     77 H           9.5745    2.2268   -0.1900 H       1  LIG1        0.0618
@<TRIPOS>BOND
     1     1    35    1
     2     1    21    1
     3     2    36    1
     4     2    30    1
     5     3    32    1
     6     3    36    1
     7     4    27    1
     8     4    40    1
     9     5    31    1
    10     5    43    1
    11     6    34   ar
    12     7    34   ar
    13     8    45   ar
    14     9    45   ar
    15    10    11   ar
    16    10    12   ar
    17    10    13    1
    18    11    18   ar
    19    12    15   ar
    20    13    14    1
    21    14    17    1
    22    15    18   ar
    23    15    19    1
    24    16    24   ar
    25    16    21   ar
    26    16    12    1
    27    17    25    1
    28    19    22    2
    29    20    22    1
    30    20    23    1
    31    21    26   ar
    32    22    34    1
    33    23    28   ar
    34    23    27   ar
    35    24    29   ar
    36    26    31   ar
    37    27    33   ar
    38    28    30   ar
    39    29    31   ar
    40    30    32   ar
    41    32    33   ar
    42    35    37    1
    43    37    39   ar
    44    37    38   ar
    45    38    41   ar
    46    38    45    1
    47    39    42   ar
    48    41    44   ar
    49    42    44   ar
    50    13    46    1
    51    13    47    1
    52    14    48    1
    53    14    49    1
    54    17    50    1
    55    17    51    1
    56    18    52    1
    57    19    53    1
    58    20    54    1
    59    20    55    1
    60    24    56    1
    61    25    57    1
    62    25    58    1
    63    25    59    1
    64    26    60    1
    65    28    61    1
    66    29    62    1
    67    33    63    1
    68    35    64    1
    69    35    65    1
    70    36    66    1
    71    36    67    1
    72    39    68    1
    73    40    69    1
    74    40    70    1
    75    40    71    1
    76    41    72    1
    77    42    73    1
    78    43    74    1
    79    43    75    1
    80    43    76    1
    81    44    77    1
@<TRIPOS>MOLECULE
2-[[2-[2-butyl-4-[(Z)-2-carboxy-3-(6-methoxy-1,3-benzodioxol-5-yl)prop-1-enyl]pyrazol-3-yl]-5-methoxyphenoxy]methyl]benzoic acid
 77 81 0 0 0
SMALL
GASTEIGER

@<TRIPOS>ATOM
      1 O           3.8325    1.2989    6.2960 O.3     1  LIG1       -0.4866
      2 O           1.4660   -6.4483    9.3055 O.3     1  LIG1       -0.4526
      3 O          -0.6669   -7.4166    9.8815 O.3     1  LIG1       -0.4525
      4 O          -2.9747   -3.2738    8.7555 O.3     1  LIG1       -0.4947
      5 O           7.7175   -0.5929    4.5621 O.3     1  LIG1       -0.4950
      6 O           0.5342   -0.9638   10.7164 O.co2   1  LIG1       -0.5449
      7 O           2.5662   -1.6089    9.9044 O.co2   1  LIG1       -0.5449
      8 O           1.0332    4.1398    4.7766 O.co2   1  LIG1       -0.5446
      9 O          -0.3639    4.8033    6.4315 O.co2   1  LIG1       -0.5446
     10 N           1.2350   -0.7457    3.8107 N.ar    1  LIG1       -0.2630
     11 N          -0.0718   -0.5718    4.0823 N.ar    1  LIG1       -0.1785
     12 C           2.0545   -0.6873    4.9333 C.ar    1  LIG1        0.0795
     13 C           1.6314   -1.1039    2.4572 C.3     1  LIG1        0.0422
     14 C           0.5209   -1.1543    1.3966 C.3     1  LIG1       -0.0336
     15 C           1.1658   -0.6513    6.0022 C.ar    1  LIG1        0.0207
     16 C           3.5254   -0.6723    4.8787 C.ar    1  LIG1        0.0425
     17 C           0.9572   -1.9902    0.1893 C.3     1  LIG1       -0.0542
     18 C          -0.0965   -0.4456    5.4090 C.ar    1  LIG1        0.0571
     19 C           1.4924   -0.7366    7.3936 C.2     1  LIG1       -0.0459
     20 C          -0.5615   -2.0130    8.2547 C.3     1  LIG1        0.0029
     21 C           4.3062    0.3650    5.4171 C.ar    1  LIG1        0.1336
     22 C           0.7671   -1.3143    8.3762 C.2     1  LIG1       -0.0200
     23 C          -0.6156   -3.4787    8.6702 C.ar    1  LIG1        0.0023
     24 C           4.2020   -1.7375    4.2587 C.ar    1  LIG1       -0.0456
     25 C          -0.1234   -2.0475   -0.8784 C.3     1  LIG1       -0.0652
     26 C           5.7042    0.3442    5.2852 C.ar    1  LIG1        0.0224
     27 C          -1.8766   -4.0730    8.9576 C.ar    1  LIG1        0.1273
     28 C           0.5530   -4.2618    8.7391 C.ar    1  LIG1       -0.0092
     29 C           5.5952   -1.7468    4.1153 C.ar    1  LIG1       -0.0191
     30 C           0.4405   -5.5669    9.1578 C.ar    1  LIG1        0.1667
     31 C           6.3543   -0.6979    4.6232 C.ar    1  LIG1        0.1236
     32 C          -0.7754   -6.1186    9.4783 C.ar    1  LIG1        0.1697
     33 C          -1.9527   -5.4080    9.3743 C.ar    1  LIG1        0.0258
     34 C           1.3517   -1.2676    9.8031 C.2     1  LIG1        0.0680
     35 C           3.0775    2.3964    5.7510 C.3     1  LIG1        0.1153
     36 C           0.7687   -7.5711    9.8677 C.3     1  LIG1        0.2332
     37 C           3.0257    3.4807    6.8250 C.ar    1  LIG1       -0.0016
     38 C           1.9119    4.3416    6.9810 C.ar    1  LIG1        0.0037
     39 C           4.1189    3.6275    7.7088 C.ar    1  LIG1       -0.0547
     40 C          -4.1953   -3.6835    9.3498 C.3     1  LIG1        0.0788
     41 C           1.8858    5.2167    8.0892 C.ar    1  LIG1       -0.0525
     42 C           4.0866    4.5299    8.7717 C.ar    1  LIG1       -0.0614
     43 C           8.4213   -1.7312    4.0839 C.3     1  LIG1        0.0788
     44 C           2.9565    5.3082    8.9783 C.ar    1  LIG1       -0.0611
     45 C           0.7584    4.4020    5.9947 C.2     1  LIG1        0.0720
     46 H           2.0614   -2.1073    2.5355 H       1  LIG1        0.0509
     47 H           2.4159   -0.4049    2.1472 H       1  LIG1        0.0509
     48 H           0.2664   -0.1348    1.0838 H       1  LIG1        0.0283
     49 H          -0.3914   -1.6026    1.8076 H       1  LIG1        0.0283
     50 H           1.1795   -3.0139    0.5158 H       1  LIG1        0.0263
     51 H           1.8776   -1.5819   -0.2428 H       1  LIG1        0.0263
     52 H          -1.0420   -0.2402    5.8938 H       1  LIG1        0.0854
     53 H           2.4534   -0.3138    7.6873 H       1  LIG1        0.0628
     54 H          -0.9297   -2.0018    7.2272 H       1  LIG1        0.0363
     55 H          -1.2867   -1.4382    8.8473 H       1  LIG1        0.0363
     56 H           3.6459   -2.6026    3.9087 H       1  LIG1        0.0626
     57 H          -1.0619   -2.4359   -0.4695 H       1  LIG1        0.0230
     58 H           0.1866   -2.7070   -1.6955 H       1  LIG1        0.0230
     59 H          -0.3137   -1.0542   -1.2958 H       1  LIG1        0.0230
     60 H           6.2883    1.1347    5.7488 H       1  LIG1        0.0691
     61 H           1.5297   -3.8478    8.5068 H       1  LIG1        0.0659
     62 H           6.0479   -2.5982    3.6212 H       1  LIG1        0.0654
     63 H          -2.8876   -5.8959    9.6079 H       1  LIG1        0.0692
     64 H           2.0734    2.0360    5.5229 H       1  LIG1        0.0748
     65 H           3.5623    2.7946    4.8527 H       1  LIG1        0.0748
     66 H           1.1154   -7.7225   10.8971 H       1  LIG1        0.1166
     67 H           1.0145   -8.4644    9.2826 H       1  LIG1        0.1166
     68 H           4.9968    2.9975    7.5904 H       1  LIG1        0.0622
     69 H          -4.9166   -2.8689    9.2277 H       1  LIG1        0.0660
     70 H          -4.0785   -3.8675   10.4227 H       1  LIG1        0.0660
     71 H          -4.6019   -4.5623    8.8399 H       1  LIG1        0.0660
     72 H           1.0026    5.8354    8.2460 H       1  LIG1        0.0624
     73 H           4.9300    4.5958    9.4507 H       1  LIG1        0.0618
     74 H           9.4926   -1.5270    4.1773 H       1  LIG1        0.0660
     75 H           8.2090   -1.9077    3.0242 H       1  LIG1        0.0660
     76 H           8.2005   -2.6202    4.6845 H       1  LIG1        0.0660
     77 H           2.9009    5.9855    9.8231 H       1  LIG1        0.0618
@<TRIPOS>BOND
     1     1    35    1
     2     1    21    1
     3     2    36    1
     4     2    30    1
     5     3    32    1
     6     3    36    1
     7     4    27    1
     8     4    40    1
     9     5    31    1
    10     5    43    1
    11     6    34   ar
    12     7    34   ar
    13     8    45   ar
    14     9    45   ar
    15    10    11   ar
    16    10    12   ar
    17    10    13    1
    18    11    18   ar
    19    12    15   ar
    20    13    14    1
    21    14    17    1
    22    15    18   ar
    23    15    19    1
    24    16    24   ar
    25    16    21   ar
    26    16    12    1
    27    17    25    1
    28    19    22    2
    29    20    22    1
    30    20    23    1
    31    21    26   ar
    32    22    34    1
    33    23    28   ar
    34    23    27   ar
    35    24    29   ar
    36    26    31   ar
    37    27    33   ar
    38    28    30   ar
    39    29    31   ar
    40    30    32   ar
    41    32    33   ar
    42    35    37    1
    43    37    39   ar
    44    37    38   ar
    45    38    41   ar
    46    38    45    1
    47    39    42   ar
    48    41    44   ar
    49    42    44   ar
    50    13    46    1
    51    13    47    1
    52    14    48    1
    53    14    49    1
    54    17    50    1
    55    17    51    1
    56    18    52    1
    57    19    53    1
    58    20    54    1
    59    20    55    1
    60    24    56    1
    61    25    57    1
    62    25    58    1
    63    25    59    1
    64    26    60    1
    65    28    61    1
    66    29    62    1
    67    33    63    1
    68    35    64    1
    69    35    65    1
    70    36    66    1
    71    36    67    1
    72    39    68    1
    73    40    69    1
    74    40    70    1
    75    40    71    1
    76    41    72    1
    77    42    73    1
    78    43    74    1
    79    43    75    1
    80    43    76    1
    81    44    77    1
@<TRIPOS>MOLECULE
2-[[2-[2-butyl-4-[(Z)-2-carboxy-3-(6-methoxy-1,3-benzodioxol-5-yl)prop-1-enyl]pyrazol-3-yl]-5-methoxyphenoxy]methyl]benzoic acid
 77 81 0 0 0
SMALL
GASTEIGER

@<TRIPOS>ATOM
      1 O           4.3289   -0.9054    2.4443 O.3     1  LIG1       -0.4866
      2 O          -2.5814    3.7588    7.5391 O.3     1  LIG1       -0.4526
      3 O          -1.8810    4.8904    5.5261 O.3     1  LIG1       -0.4525
      4 O           2.5845    3.0235    5.8596 O.3     1  LIG1       -0.4947
      5 O           7.7403    1.4555    4.9612 O.3     1  LIG1       -0.4950
      6 O           2.6893   -0.0047   10.4376 O.co2   1  LIG1       -0.5449
      7 O           0.8004   -1.1990    9.9583 O.co2   1  LIG1       -0.5449
      8 O           4.5965   -4.1496    2.3693 O.co2   1  LIG1       -0.5446
      9 O           6.1704   -5.3672    3.4184 O.co2   1  LIG1       -0.5446
     10 N           1.6265   -0.8147    3.7252 N.ar    1  LIG1       -0.2630
     11 N           0.3809   -0.3078    3.9424 N.ar    1  LIG1       -0.1785
     12 C           2.4826   -0.6461    4.8211 C.ar    1  LIG1        0.0795
     13 C           1.7117   -1.8044    2.6582 C.3     1  LIG1        0.0422
     14 C           1.5736   -1.2290    1.2390 C.3     1  LIG1       -0.0336
     15 C           1.5568   -0.5190    5.8716 C.ar    1  LIG1        0.0207
     16 C           3.9797   -0.4556    4.7849 C.ar    1  LIG1        0.0425
     17 C           0.1385   -0.8247    0.8751 C.3     1  LIG1       -0.0542
     18 C           0.3166   -0.2461    5.2674 C.ar    1  LIG1        0.0571
     19 C           1.6978   -0.7144    7.2774 C.2     1  LIG1       -0.0459
     20 C           1.8640    1.6850    8.2444 C.3     1  LIG1        0.0029
     21 C           4.7865   -0.3941    3.6203 C.ar    1  LIG1        0.1336
     22 C           1.7378    0.1905    8.2765 C.2     1  LIG1       -0.0200
     23 C           0.8710    2.4736    7.4139 C.ar    1  LIG1        0.0023
     24 C           4.6132   -0.0617    5.9825 C.ar    1  LIG1       -0.0456
     25 C           0.0046   -0.4629   -0.5966 C.3     1  LIG1       -0.0652
     26 C           6.0140    0.2943    3.6492 C.ar    1  LIG1        0.0224
     27 C           1.2669    3.1367    6.2234 C.ar    1  LIG1        0.1273
     28 C          -0.4502    2.6180    7.8846 C.ar    1  LIG1       -0.0092
     29 C           5.8884    0.5165    6.0141 C.ar    1  LIG1       -0.0191
     30 C          -1.3048    3.4442    7.1868 C.ar    1  LIG1        0.1667
     31 C           6.5692    0.7600    4.8358 C.ar    1  LIG1        0.1236
     32 C          -0.9068    4.0892    6.0404 C.ar    1  LIG1        0.1697
     33 C           0.3628    3.9467    5.5250 C.ar    1  LIG1        0.0258
     34 C           1.7524   -0.4102    9.6925 C.2     1  LIG1        0.0680
     35 C           5.1816   -1.5372    1.4603 C.3     1  LIG1        0.1153
     36 C          -2.9171    4.7092    6.5108 C.3     1  LIG1        0.2332
     37 C           6.5766   -2.0765    1.7693 C.ar    1  LIG1       -0.0016
     38 C           6.8399   -3.2962    2.4362 C.ar    1  LIG1        0.0037
     39 C           7.6776   -1.3052    1.3177 C.ar    1  LIG1       -0.0547
     40 C           2.8382    3.0528    4.4612 C.3     1  LIG1        0.0788
     41 C           8.1896   -3.6152    2.7290 C.ar    1  LIG1       -0.0525
     42 C           8.9962   -1.6540    1.6046 C.ar    1  LIG1       -0.0614
     43 C           8.3211    1.9339    3.7560 C.3     1  LIG1        0.0788
     44 C           9.2524   -2.8023    2.3340 C.ar    1  LIG1       -0.0611
     45 C           5.7780   -4.3360    2.7906 C.2     1  LIG1        0.0720
     46 H           0.9059   -2.5277    2.8421 H       1  LIG1        0.0509
     47 H           2.6328   -2.3728    2.7846 H       1  LIG1        0.0509
     48 H           1.9063   -1.9983    0.5314 H       1  LIG1        0.0283
     49 H           2.2294   -0.3611    1.1060 H       1  LIG1        0.0283
     50 H          -0.1730    0.0433    1.4647 H       1  LIG1        0.0263
     51 H          -0.5532   -1.6433    1.1048 H       1  LIG1        0.0263
     52 H          -0.6278   -0.0283    5.7476 H       1  LIG1        0.0854
     53 H           1.6895   -1.7670    7.5686 H       1  LIG1        0.0628
     54 H           2.8950    1.9377    7.9714 H       1  LIG1        0.0363
     55 H           1.7637    2.0826    9.2652 H       1  LIG1        0.0363
     56 H           4.1031   -0.1334    6.9362 H       1  LIG1        0.0626
     57 H           0.6670    0.3677   -0.8596 H       1  LIG1        0.0230
     58 H          -1.0240   -0.1588   -0.8174 H       1  LIG1        0.0230
     59 H           0.2487   -1.3172   -1.2355 H       1  LIG1        0.0230
     60 H           6.5138    0.4867    2.7138 H       1  LIG1        0.0691
     61 H          -0.7714    2.1220    8.7959 H       1  LIG1        0.0659
     62 H           6.3001    0.8369    6.9668 H       1  LIG1        0.0654
     63 H           0.6424    4.4884    4.6326 H       1  LIG1        0.0692
     64 H           5.2770   -0.7966    0.6550 H       1  LIG1        0.0748
     65 H           4.5903   -2.3236    0.9804 H       1  LIG1        0.0748
     66 H          -3.1177    5.6791    6.9829 H       1  LIG1        0.1166
     67 H          -3.8291    4.3754    6.0036 H       1  LIG1        0.1166
     68 H           7.4986   -0.3945    0.7507 H       1  LIG1        0.0622
     69 H           3.8456    2.6629    4.2942 H       1  LIG1        0.0660
     70 H           2.8253    4.0841    4.0951 H       1  LIG1        0.0660
     71 H           2.1338    2.4311    3.8988 H       1  LIG1        0.0660
     72 H           8.4070   -4.5382    3.2688 H       1  LIG1        0.0624
     73 H           9.8132   -1.0235    1.2709 H       1  LIG1        0.0618
     74 H           9.1677    2.5735    4.0231 H       1  LIG1        0.0660
     75 H           7.6143    2.5465    3.1849 H       1  LIG1        0.0660
     76 H           8.7074    1.1090    3.1505 H       1  LIG1        0.0660
     77 H          10.2696   -3.0857    2.5835 H       1  LIG1        0.0618
@<TRIPOS>BOND
     1     1    35    1
     2     1    21    1
     3     2    36    1
     4     2    30    1
     5     3    32    1
     6     3    36    1
     7     4    27    1
     8     4    40    1
     9     5    31    1
    10     5    43    1
    11     6    34   ar
    12     7    34   ar
    13     8    45   ar
    14     9    45   ar
    15    10    11   ar
    16    10    12   ar
    17    10    13    1
    18    11    18   ar
    19    12    15   ar
    20    13    14    1
    21    14    17    1
    22    15    18   ar
    23    15    19    1
    24    16    24   ar
    25    16    21   ar
    26    16    12    1
    27    17    25    1
    28    19    22    2
    29    20    22    1
    30    20    23    1
    31    21    26   ar
    32    22    34    1
    33    23    28   ar
    34    23    27   ar
    35    24    29   ar
    36    26    31   ar
    37    27    33   ar
    38    28    30   ar
    39    29    31   ar
    40    30    32   ar
    41    32    33   ar
    42    35    37    1
    43    37    39   ar
    44    37    38   ar
    45    38    41   ar
    46    38    45    1
    47    39    42   ar
    48    41    44   ar
    49    42    44   ar
    50    13    46    1
    51    13    47    1
    52    14    48    1
    53    14    49    1
    54    17    50    1
    55    17    51    1
    56    18    52    1
    57    19    53    1
    58    20    54    1
    59    20    55    1
    60    24    56    1
    61    25    57    1
    62    25    58    1
    63    25    59    1
    64    26    60    1
    65    28    61    1
    66    29    62    1
    67    33    63    1
    68    35    64    1
    69    35    65    1
    70    36    66    1
    71    36    67    1
    72    39    68    1
    73    40    69    1
    74    40    70    1
    75    40    71    1
    76    41    72    1
    77    42    73    1
    78    43    74    1
    79    43    75    1
    80    43    76    1
    81    44    77    1
@<TRIPOS>MOLECULE
2-[[2-[2-butyl-4-[(Z)-2-carboxy-3-(6-methoxy-1,3-benzodioxol-5-yl)prop-1-enyl]pyrazol-3-yl]-5-methoxyphenoxy]methyl]benzoic acid
 77 81 0 0 0
SMALL
GASTEIGER

@<TRIPOS>ATOM
      1 O           4.2441   -0.2094    2.2944 O.3     1  LIG1       -0.4866
      2 O          -1.3279    4.8740    6.3530 O.3     1  LIG1       -0.4526
      3 O          -0.4946    6.1172    8.2462 O.3     1  LIG1       -0.4525
      4 O           0.6488    2.0008   10.5769 O.3     1  LIG1       -0.4947
      5 O           7.5852    1.8875    5.0343 O.3     1  LIG1       -0.4950
      6 O           0.7881   -1.4218   10.3289 O.co2   1  LIG1       -0.5449
      7 O           2.8352   -0.5865    9.7480 O.co2   1  LIG1       -0.5449
      8 O           4.3625   -0.8179   -0.9664 O.co2   1  LIG1       -0.5446
      9 O           5.4858    1.0443   -1.5888 O.co2   1  LIG1       -0.5446
     10 N           1.4445   -0.5280    3.6023 N.ar    1  LIG1       -0.2630
     11 N           0.1305   -0.3193    3.8781 N.ar    1  LIG1       -0.1785
     12 C           2.2764   -0.2842    4.7048 C.ar    1  LIG1        0.0795
     13 C           1.6777   -1.4549    2.5042 C.3     1  LIG1        0.0422
     14 C           1.5090   -0.8694    1.1009 C.3     1  LIG1       -0.0336
     15 C           1.3677   -0.4204    5.7785 C.ar    1  LIG1        0.0207
     16 C           3.7367    0.1096    4.6819 C.ar    1  LIG1        0.0425
     17 C           0.0455   -0.6162    0.7252 C.3     1  LIG1       -0.0542
     18 C           0.0885   -0.3832    5.2019 C.ar    1  LIG1        0.0571
     19 C           1.6650   -0.6181    7.1656 C.2     1  LIG1       -0.0459
     20 C          -0.3169    0.4804    8.4300 C.3     1  LIG1        0.0029
     21 C           4.5875    0.2113    3.5570 C.ar    1  LIG1        0.1336
     22 C           0.9901   -0.2458    8.2761 C.2     1  LIG1       -0.0200
     23 C          -0.2615    2.0016    8.4000 C.ar    1  LIG1        0.0023
     24 C           4.3133    0.5683    5.8919 C.ar    1  LIG1       -0.0456
     25 C          -0.1059   -0.3007   -0.7546 C.3     1  LIG1       -0.0652
     26 C           5.8424    0.8618    3.6405 C.ar    1  LIG1        0.0224
     27 C           0.2034    2.7436    9.5195 C.ar    1  LIG1        0.1273
     28 C          -0.7724    2.6880    7.2809 C.ar    1  LIG1       -0.0092
     29 C           5.6076    1.1043    5.9858 C.ar    1  LIG1       -0.0191
     30 C          -0.8161    4.0648    7.3198 C.ar    1  LIG1        0.1667
     31 C           6.3706    1.2880    4.8495 C.ar    1  LIG1        0.1236
     32 C          -0.3494    4.7718    8.4008 C.ar    1  LIG1        0.1697
     33 C           0.1784    4.1443    9.5085 C.ar    1  LIG1        0.0258
     34 C           1.5959   -0.7816    9.5918 C.2     1  LIG1        0.0680
     35 C           5.0014   -1.3656    1.8514 C.3     1  LIG1        0.1153
     36 C          -1.1065    6.1694    6.9414 C.3     1  LIG1        0.2332
     37 C           6.3557   -1.0841    1.2204 C.ar    1  LIG1       -0.0016
     38 C           6.5085   -0.4084   -0.0110 C.ar    1  LIG1        0.0037
     39 C           7.5120   -1.4825    1.9286 C.ar    1  LIG1       -0.0547
     40 C           0.7692    2.6366   11.8363 C.3     1  LIG1        0.0788
     41 C           7.8135   -0.1028   -0.4547 C.ar    1  LIG1       -0.0525
     42 C           8.7916   -1.1853    1.4586 C.ar    1  LIG1       -0.0614
     43 C           8.2794    2.2725    3.8525 C.3     1  LIG1        0.0788
     44 C           8.9427   -0.4827    0.2706 C.ar    1  LIG1       -0.0611
     45 C           5.3475   -0.0191   -0.9044 C.2     1  LIG1        0.0720
     46 H           0.9666   -2.2825    2.6395 H       1  LIG1        0.0509
     47 H           2.6505   -1.9193    2.6539 H       1  LIG1        0.0509
     48 H           1.9295   -1.5900    0.3887 H       1  LIG1        0.0283
     49 H           2.0736    0.0630    0.9946 H       1  LIG1        0.0283
     50 H          -0.3512    0.2247    1.3039 H       1  LIG1        0.0263
     51 H          -0.5643   -1.4957    0.9633 H       1  LIG1        0.0263
     52 H          -0.8791   -0.4280    5.6749 H       1  LIG1        0.0854
     53 H           2.5761   -1.1953    7.3408 H       1  LIG1        0.0628
     54 H          -0.8158    0.1933    9.3651 H       1  LIG1        0.0363
     55 H          -1.0298    0.1354    7.6757 H       1  LIG1        0.0363
     56 H           3.7551    0.5741    6.8232 H       1  LIG1        0.0626
     57 H           0.4852    0.5771   -1.0323 H       1  LIG1        0.0230
     58 H          -1.1549   -0.0957   -0.9911 H       1  LIG1        0.0230
     59 H           0.2198   -1.1457   -1.3693 H       1  LIG1        0.0230
     60 H           6.3828    1.0340    2.7159 H       1  LIG1        0.0691
     61 H          -1.1468    2.1545    6.4144 H       1  LIG1        0.0659
     62 H           5.9784    1.4252    6.9556 H       1  LIG1        0.0654
     63 H           0.5474    4.7402   10.3316 H       1  LIG1        0.0692
     64 H           4.3849   -1.9174    1.1355 H       1  LIG1        0.0748
     65 H           5.1144   -2.0641    2.6937 H       1  LIG1        0.0748
     66 H          -2.0722    6.6810    7.0323 H       1  LIG1        0.1166
     67 H          -0.4645    6.7556    6.2745 H       1  LIG1        0.1166
     68 H           7.4113   -2.0044    2.8784 H       1  LIG1        0.0622
     69 H           1.0016    1.8673   12.5789 H       1  LIG1        0.0660
     70 H          -0.1744    3.1091   12.1313 H       1  LIG1        0.0660
     71 H           1.5891    3.3619   11.8395 H       1  LIG1        0.0660
     72 H           7.9320    0.4375   -1.3939 H       1  LIG1        0.0624
     73 H           9.6628   -1.4883    2.0305 H       1  LIG1        0.0618
     74 H           9.1830    2.8089    4.1577 H       1  LIG1        0.0660
     75 H           7.6789    2.9563    3.2429 H       1  LIG1        0.0660
     76 H           8.5945    1.3975    3.2761 H       1  LIG1        0.0660
     77 H           9.9309   -0.2319   -0.1004 H       1  LIG1        0.0618
@<TRIPOS>BOND
     1     1    35    1
     2     1    21    1
     3     2    36    1
     4     2    30    1
     5     3    32    1
     6     3    36    1
     7     4    27    1
     8     4    40    1
     9     5    31    1
    10     5    43    1
    11     6    34   ar
    12     7    34   ar
    13     8    45   ar
    14     9    45   ar
    15    10    11   ar
    16    10    12   ar
    17    10    13    1
    18    11    18   ar
    19    12    15   ar
    20    13    14    1
    21    14    17    1
    22    15    18   ar
    23    15    19    1
    24    16    24   ar
    25    16    21   ar
    26    16    12    1
    27    17    25    1
    28    19    22    2
    29    20    22    1
    30    20    23    1
    31    21    26   ar
    32    22    34    1
    33    23    28   ar
    34    23    27   ar
    35    24    29   ar
    36    26    31   ar
    37    27    33   ar
    38    28    30   ar
    39    29    31   ar
    40    30    32   ar
    41    32    33   ar
    42    35    37    1
    43    37    39   ar
    44    37    38   ar
    45    38    41   ar
    46    38    45    1
    47    39    42   ar
    48    41    44   ar
    49    42    44   ar
    50    13    46    1
    51    13    47    1
    52    14    48    1
    53    14    49    1
    54    17    50    1
    55    17    51    1
    56    18    52    1
    57    19    53    1
    58    20    54    1
    59    20    55    1
    60    24    56    1
    61    25    57    1
    62    25    58    1
    63    25    59    1
    64    26    60    1
    65    28    61    1
    66    29    62    1
    67    33    63    1
    68    35    64    1
    69    35    65    1
    70    36    66    1
    71    36    67    1
    72    39    68    1
    73    40    69    1
    74    40    70    1
    75    40    71    1
    76    41    72    1
    77    42    73    1
    78    43    74    1
    79    43    75    1
    80    43    76    1
    81    44    77    1
@<TRIPOS>MOLECULE
2-[[2-[2-butyl-4-[(Z)-2-carboxy-3-(6-methoxy-1,3-benzodioxol-5-yl)prop-1-enyl]pyrazol-3-yl]-5-methoxyphenoxy]methyl]benzoic acid
 77 81 0 0 0
SMALL
GASTEIGER

@<TRIPOS>ATOM
      1 O           3.9657    1.8353    5.7355 O.3     1  LIG1       -0.4866
      2 O           1.5322   -6.4702    9.3062 O.3     1  LIG1       -0.4526
      3 O          -0.6474   -7.3863    9.7854 O.3     1  LIG1       -0.4525
      4 O          -2.7986   -3.1605    8.6584 O.3     1  LIG1       -0.4947
      5 O           7.8612   -0.3021    4.5375 O.3     1  LIG1       -0.4950
      6 O           2.9142   -1.5826    9.7523 O.co2   1  LIG1       -0.5449
      7 O           0.9069   -1.0808   10.7153 O.co2   1  LIG1       -0.5449
      8 O          -0.1098    2.9883    5.6682 O.co2   1  LIG1       -0.5446
      9 O          -0.6478    4.8728    6.7921 O.co2   1  LIG1       -0.5446
     10 N           1.3711   -0.8454    3.7954 N.ar    1  LIG1       -0.2630
     11 N           0.0657   -0.6513    4.0602 N.ar    1  LIG1       -0.1785
     12 C           2.2042   -0.6153    4.8791 C.ar    1  LIG1        0.0795
     13 C           1.6900   -1.4601    2.5144 C.3     1  LIG1        0.0422
     14 C           1.4546   -2.9767    2.5857 C.3     1  LIG1       -0.0336
     15 C           1.3312   -0.6278    5.9599 C.ar    1  LIG1        0.0207
     16 C           3.6662   -0.4915    4.8139 C.ar    1  LIG1        0.0425
     17 C           1.7517   -3.7421    1.2983 C.3     1  LIG1       -0.0542
     18 C           0.0573   -0.4487    5.3808 C.ar    1  LIG1        0.0571
     19 C           1.7047   -0.7174    7.3423 C.2     1  LIG1       -0.0459
     20 C          -0.3428   -1.9531    8.2790 C.3     1  LIG1        0.0029
     21 C           4.3880    0.6523    5.1983 C.ar    1  LIG1        0.1336
     22 C           1.0128   -1.3009    8.3456 C.2     1  LIG1       -0.0200
     23 C          -0.4438   -3.4318    8.6434 C.ar    1  LIG1        0.0023
     24 C           4.4016   -1.6065    4.3588 C.ar    1  LIG1       -0.0456
     25 C           3.1686   -3.5556    0.7836 C.3     1  LIG1       -0.0652
     26 C           5.7966    0.6406    5.0901 C.ar    1  LIG1        0.0224
     27 C          -1.7332   -4.0025    8.8593 C.ar    1  LIG1        0.1273
     28 C           0.7002   -4.2477    8.7407 C.ar    1  LIG1       -0.0092
     29 C           5.7944   -1.5873    4.2263 C.ar    1  LIG1       -0.0191
     30 C           0.5343   -5.5584    9.1269 C.ar    1  LIG1        0.1667
     31 C           6.5035   -0.4573    4.5991 C.ar    1  LIG1        0.1236
     32 C          -0.7063   -6.0840    9.3903 C.ar    1  LIG1        0.1697
     33 C          -1.8605   -5.3407    9.2522 C.ar    1  LIG1        0.0258
     34 C           1.6797   -1.2967    9.7414 C.2     1  LIG1        0.0680
     35 C           2.6359    2.3551    5.5690 C.3     1  LIG1        0.1153
     36 C           0.7823   -7.5752    9.8371 C.3     1  LIG1        0.2332
     37 C           2.6966    3.8860    5.6098 C.ar    1  LIG1       -0.0016
     38 C           1.5596    4.6811    5.9108 C.ar    1  LIG1        0.0037
     39 C           3.9113    4.5433    5.3087 C.ar    1  LIG1       -0.0547
     40 C          -4.0989   -3.7259    8.6679 C.3     1  LIG1        0.0788
     41 C           1.7074    6.0872    5.9500 C.ar    1  LIG1       -0.0525
     42 C           4.0248    5.9337    5.3378 C.ar    1  LIG1       -0.0614
     43 C           8.6197   -1.4669    4.2409 C.3     1  LIG1        0.0788
     44 C           2.9213    6.7085    5.6674 C.ar    1  LIG1       -0.0611
     45 C           0.1670    4.1214    6.1637 C.2     1  LIG1        0.0720
     46 H           2.7190   -1.2045    2.2535 H       1  LIG1        0.0509
     47 H           1.0377   -1.0048    1.7603 H       1  LIG1        0.0509
     48 H           0.4083   -3.1693    2.8582 H       1  LIG1        0.0283
     49 H           2.0456   -3.4132    3.3993 H       1  LIG1        0.0283
     50 H           1.0372   -3.4533    0.5198 H       1  LIG1        0.0263
     51 H           1.5897   -4.8099    1.4936 H       1  LIG1        0.0263
     52 H          -0.8817   -0.2203    5.8685 H       1  LIG1        0.0854
     53 H           2.6865   -0.3157    7.5902 H       1  LIG1        0.0628
     54 H          -0.7648   -1.8894    7.2746 H       1  LIG1        0.0363
     55 H          -1.0158   -1.3798    8.9291 H       1  LIG1        0.0363
     56 H           3.8871   -2.5307    4.1168 H       1  LIG1        0.0626
     57 H           3.3151   -2.5453    0.3906 H       1  LIG1        0.0230
     58 H           3.3668   -4.2598   -0.0308 H       1  LIG1        0.0230
     59 H           3.9057   -3.7336    1.5729 H       1  LIG1        0.0230
     60 H           6.3497    1.5207    5.4127 H       1  LIG1        0.0691
     61 H           1.6953   -3.8582    8.5543 H       1  LIG1        0.0659
     62 H           6.2828   -2.4768    3.8464 H       1  LIG1        0.0654
     63 H          -2.8136   -5.8022    9.4639 H       1  LIG1        0.0692
     64 H           2.0500    2.0032    6.4201 H       1  LIG1        0.0748
     65 H           2.2111    2.0580    4.6065 H       1  LIG1        0.0748
     66 H           1.0781   -7.7313   10.8823 H       1  LIG1        0.1166
     67 H           1.0342   -8.4756    9.2666 H       1  LIG1        0.1166
     68 H           4.7927    3.9602    5.0544 H       1  LIG1        0.0622
     69 H          -4.8068   -2.9422    8.3809 H       1  LIG1        0.0660
     70 H          -4.3702   -4.0679    9.6716 H       1  LIG1        0.0660
     71 H          -4.1887   -4.5356    7.9361 H       1  LIG1        0.0660
     72 H           0.8392    6.6955    6.1988 H       1  LIG1        0.0624
     73 H           4.9736    6.4049    5.1089 H       1  LIG1        0.0618
     74 H           9.6785   -1.2167    4.3599 H       1  LIG1        0.0660
     75 H           8.4657   -1.7773    3.2022 H       1  LIG1        0.0660
     76 H           8.3937   -2.2836    4.9348 H       1  LIG1        0.0660
     77 H           2.9919    7.7895    5.7010 H       1  LIG1        0.0618
@<TRIPOS>BOND
     1     1    35    1
     2     1    21    1
     3     2    36    1
     4     2    30    1
     5     3    32    1
     6     3    36    1
     7     4    27    1
     8     4    40    1
     9     5    31    1
    10     5    43    1
    11     6    34   ar
    12     7    34   ar
    13     8    45   ar
    14     9    45   ar
    15    10    11   ar
    16    10    12   ar
    17    10    13    1
    18    11    18   ar
    19    12    15   ar
    20    13    14    1
    21    14    17    1
    22    15    18   ar
    23    15    19    1
    24    16    24   ar
    25    16    21   ar
    26    16    12    1
    27    17    25    1
    28    19    22    2
    29    20    22    1
    30    20    23    1
    31    21    26   ar
    32    22    34    1
    33    23    28   ar
    34    23    27   ar
    35    24    29   ar
    36    26    31   ar
    37    27    33   ar
    38    28    30   ar
    39    29    31   ar
    40    30    32   ar
    41    32    33   ar
    42    35    37    1
    43    37    39   ar
    44    37    38   ar
    45    38    41   ar
    46    38    45    1
    47    39    42   ar
    48    41    44   ar
    49    42    44   ar
    50    13    46    1
    51    13    47    1
    52    14    48    1
    53    14    49    1
    54    17    50    1
    55    17    51    1
    56    18    52    1
    57    19    53    1
    58    20    54    1
    59    20    55    1
    60    24    56    1
    61    25    57    1
    62    25    58    1
    63    25    59    1
    64    26    60    1
    65    28    61    1
    66    29    62    1
    67    33    63    1
    68    35    64    1
    69    35    65    1
    70    36    66    1
    71    36    67    1
    72    39    68    1
    73    40    69    1
    74    40    70    1
    75    40    71    1
    76    41    72    1
    77    42    73    1
    78    43    74    1
    79    43    75    1
    80    43    76    1
    81    44    77    1
@<TRIPOS>MOLECULE
2-[[2-[2-butyl-4-[(Z)-2-carboxy-3-(6-methoxy-1,3-benzodioxol-5-yl)prop-1-enyl]pyrazol-3-yl]-5-methoxyphenoxy]methyl]benzoic acid
 77 81 0 0 0
SMALL
GASTEIGER

@<TRIPOS>ATOM
      1 O           3.7645    1.2688    6.2593 O.3     1  LIG1       -0.4866
      2 O           1.4585   -6.4333    9.3063 O.3     1  LIG1       -0.4526
      3 O          -0.6895   -7.3912    9.8337 O.3     1  LIG1       -0.4525
      4 O          -2.9548   -3.2389    8.6480 O.3     1  LIG1       -0.4947
      5 O           7.7092   -0.4629    4.4933 O.3     1  LIG1       -0.4950
      6 O           0.6062   -0.9646   10.6833 O.co2   1  LIG1       -0.5449
      7 O           2.6197   -1.6384    9.8441 O.co2   1  LIG1       -0.5449
      8 O           1.0420    4.2323    4.8101 O.co2   1  LIG1       -0.5446
      9 O          -0.3288    4.8513    6.4988 O.co2   1  LIG1       -0.5446
     10 N           1.1676   -0.8446    3.7972 N.ar    1  LIG1       -0.2630
     11 N          -0.1061   -0.5103    4.0896 N.ar    1  LIG1       -0.1785
     12 C           2.0398   -0.7171    4.8739 C.ar    1  LIG1        0.0795
     13 C           1.3647   -1.5531    2.5450 C.3     1  LIG1        0.0422
     14 C           2.0790   -0.7795    1.4426 C.3     1  LIG1       -0.0336
     15 C           1.1834   -0.6302    5.9686 C.ar    1  LIG1        0.0207
     16 C           3.5121   -0.6672    4.7833 C.ar    1  LIG1        0.0425
     17 C           2.2527   -1.6292    0.1758 C.3     1  LIG1       -0.0542
     18 C          -0.0812   -0.3473    5.4121 C.ar    1  LIG1        0.0571
     19 C           1.5327   -0.7238    7.3540 C.2     1  LIG1       -0.0459
     20 C          -0.5276   -1.9854    8.2206 C.3     1  LIG1        0.0029
     21 C           4.2696    0.3754    5.3539 C.ar    1  LIG1        0.1336
     22 C           0.8100   -1.3027    8.3381 C.2     1  LIG1       -0.0200
     23 C          -0.5972   -3.4572    8.6180 C.ar    1  LIG1        0.0023
     24 C           4.2223   -1.6772    4.1127 C.ar    1  LIG1       -0.0456
     25 C           3.2550   -2.7651    0.3376 C.3     1  LIG1       -0.0652
     26 C           5.6681    0.4017    5.2289 C.ar    1  LIG1        0.0224
     27 C          -1.8680   -4.0518    8.8566 C.ar    1  LIG1        0.1273
     28 C           0.5669   -4.2451    8.7126 C.ar    1  LIG1       -0.0092
     29 C           5.6170   -1.6364    3.9698 C.ar    1  LIG1       -0.0191
     30 C           0.4407   -5.5508    9.1258 C.ar    1  LIG1        0.1667
     31 C           6.3475   -0.5967    4.5340 C.ar    1  LIG1        0.1236
     32 C          -0.7857   -6.0975    9.4155 C.ar    1  LIG1        0.1697
     33 C          -1.9579   -5.3840    9.2777 C.ar    1  LIG1        0.0258
     34 C           1.4112   -1.2755    9.7592 C.2     1  LIG1        0.0680
     35 C           3.0706    2.4124    5.7267 C.3     1  LIG1        0.1153
     36 C           0.7451   -7.5449    9.8697 C.3     1  LIG1        0.2332
     37 C           3.0454    3.4748    6.8233 C.ar    1  LIG1       -0.0016
     38 C           1.9528    4.3566    7.0061 C.ar    1  LIG1        0.0037
     39 C           4.1490    3.5817    7.7005 C.ar    1  LIG1       -0.0547
     40 C          -4.2404   -3.8354    8.6829 C.3     1  LIG1        0.0788
     41 C           1.9589    5.2197    8.1233 C.ar    1  LIG1       -0.0525
     42 C           4.1488    4.4711    8.7752 C.ar    1  LIG1       -0.0614
     43 C           8.4434   -1.6176    4.1086 C.3     1  LIG1        0.0788
     44 C           3.0407    5.2759    9.0014 C.ar    1  LIG1       -0.0611
     45 C           0.7916    4.4570    6.0344 C.2     1  LIG1        0.0720
     46 H           0.3699   -1.8449    2.1805 H       1  LIG1        0.0509
     47 H           1.8604   -2.4955    2.7866 H       1  LIG1        0.0509
     48 H           3.0542   -0.4139    1.7794 H       1  LIG1        0.0283
     49 H           1.4854    0.1077    1.1900 H       1  LIG1        0.0283
     50 H           2.5923   -0.9814   -0.6405 H       1  LIG1        0.0263
     51 H           1.2851   -2.0442   -0.1317 H       1  LIG1        0.0263
     52 H          -0.9933   -0.0682    5.9234 H       1  LIG1        0.0854
     53 H           2.5031   -0.3205    7.6402 H       1  LIG1        0.0628
     54 H          -0.9029   -1.9551    7.1949 H       1  LIG1        0.0363
     55 H          -1.2416   -1.4130    8.8268 H       1  LIG1        0.0363
     56 H           3.7057   -2.5448    3.7191 H       1  LIG1        0.0626
     57 H           4.2382   -2.3818    0.6272 H       1  LIG1        0.0230
     58 H           3.3679   -3.3049   -0.6085 H       1  LIG1        0.0230
     59 H           2.9321   -3.4902    1.0903 H       1  LIG1        0.0230
     60 H           6.2279    1.1882    5.7282 H       1  LIG1        0.0691
     61 H           1.5521   -3.8344    8.5087 H       1  LIG1        0.0659
     62 H           6.0959   -2.4446    3.4294 H       1  LIG1        0.0654
     63 H          -2.8972   -5.8633    9.5117 H       1  LIG1        0.0692
     64 H           2.0585    2.0955    5.4698 H       1  LIG1        0.0748
     65 H           3.5867    2.8110    4.8460 H       1  LIG1        0.0748
     66 H           1.0590   -7.6737   10.9129 H       1  LIG1        0.1166
     67 H           1.0104   -8.4498    9.3121 H       1  LIG1        0.1166
     68 H           5.0101    2.9310    7.5658 H       1  LIG1        0.0622
     69 H          -4.9704   -3.0746    8.3888 H       1  LIG1        0.0660
     70 H          -4.4929   -4.1646    9.6955 H       1  LIG1        0.0660
     71 H          -4.3175   -4.6605    7.9669 H       1  LIG1        0.0660
     72 H           1.0932    5.8584    8.2954 H       1  LIG1        0.0624
     73 H           4.9991    4.5077    9.4473 H       1  LIG1        0.0618
     74 H           9.5042   -1.4162    4.2890 H       1  LIG1        0.0660
     75 H           8.3201   -1.8184    3.0396 H       1  LIG1        0.0660
     76 H           8.1672   -2.4918    4.7086 H       1  LIG1        0.0660
     77 H           3.0105    5.9454    9.8541 H       1  LIG1        0.0618
@<TRIPOS>BOND
     1     1    35    1
     2     1    21    1
     3     2    36    1
     4     2    30    1
     5     3    32    1
     6     3    36    1
     7     4    27    1
     8     4    40    1
     9     5    31    1
    10     5    43    1
    11     6    34   ar
    12     7    34   ar
    13     8    45   ar
    14     9    45   ar
    15    10    11   ar
    16    10    12   ar
    17    10    13    1
    18    11    18   ar
    19    12    15   ar
    20    13    14    1
    21    14    17    1
    22    15    18   ar
    23    15    19    1
    24    16    24   ar
    25    16    21   ar
    26    16    12    1
    27    17    25    1
    28    19    22    2
    29    20    22    1
    30    20    23    1
    31    21    26   ar
    32    22    34    1
    33    23    28   ar
    34    23    27   ar
    35    24    29   ar
    36    26    31   ar
    37    27    33   ar
    38    28    30   ar
    39    29    31   ar
    40    30    32   ar
    41    32    33   ar
    42    35    37    1
    43    37    39   ar
    44    37    38   ar
    45    38    41   ar
    46    38    45    1
    47    39    42   ar
    48    41    44   ar
    49    42    44   ar
    50    13    46    1
    51    13    47    1
    52    14    48    1
    53    14    49    1
    54    17    50    1
    55    17    51    1
    56    18    52    1
    57    19    53    1
    58    20    54    1
    59    20    55    1
    60    24    56    1
    61    25    57    1
    62    25    58    1
    63    25    59    1
    64    26    60    1
    65    28    61    1
    66    29    62    1
    67    33    63    1
    68    35    64    1
    69    35    65    1
    70    36    66    1
    71    36    67    1
    72    39    68    1
    73    40    69    1
    74    40    70    1
    75    40    71    1
    76    41    72    1
    77    42    73    1
    78    43    74    1
    79    43    75    1
    80    43    76    1
    81    44    77    1
@<TRIPOS>MOLECULE
2-[[2-[2-butyl-4-[(Z)-2-carboxy-3-(6-methoxy-1,3-benzodioxol-5-yl)prop-1-enyl]pyrazol-3-yl]-5-methoxyphenoxy]methyl]benzoic acid
 77 81 0 0 0
SMALL
GASTEIGER

@<TRIPOS>ATOM
      1 O           3.9905    1.6081    5.7222 O.3     1  LIG1       -0.4866
      2 O          -4.9142    1.8327    9.8017 O.3     1  LIG1       -0.4526
      3 O          -4.4304    3.9019    8.6557 O.3     1  LIG1       -0.4525
      4 O          -0.3601    2.1626    6.8248 O.3     1  LIG1       -0.4947
      5 O           7.8642   -0.8627    4.3608 O.3     1  LIG1       -0.4950
      6 O           0.5349   -0.0664   10.6593 O.co2   1  LIG1       -0.5449
      7 O           2.5515   -0.6625    9.7909 O.co2   1  LIG1       -0.5449
      8 O           5.1089    5.0906    4.8744 O.co2   1  LIG1       -0.5446
      9 O           3.1490    6.1882    5.0891 O.co2   1  LIG1       -0.5446
     10 N           1.4804   -0.5997    3.6345 N.ar    1  LIG1       -0.2630
     11 N           0.1587   -0.4506    3.8339 N.ar    1  LIG1       -0.1785
     12 C           2.2368   -0.5155    4.7988 C.ar    1  LIG1        0.0795
     13 C           1.9304   -0.8449    2.2704 C.3     1  LIG1        0.0422
     14 C           0.8848   -1.5168    1.3561 C.3     1  LIG1       -0.0336
     15 C           1.2975   -0.3563    5.8188 C.ar    1  LIG1        0.0207
     16 C           3.7115   -0.6036    4.8163 C.ar    1  LIG1        0.0425
     17 C          -0.0457   -0.5097    0.6725 C.3     1  LIG1       -0.0542
     18 C           0.0641   -0.2505    5.1440 C.ar    1  LIG1        0.0571
     19 C           1.5716   -0.2887    7.2290 C.2     1  LIG1       -0.0459
     20 C          -0.7862   -0.4143    8.2517 C.3     1  LIG1        0.0029
     21 C           4.5571    0.4654    5.1885 C.ar    1  LIG1        0.1336
     22 C           0.7173   -0.2847    8.2821 C.2     1  LIG1       -0.0200
     23 C          -1.6478    0.8412    8.3747 C.ar    1  LIG1        0.0023
     24 C           4.3026   -1.8121    4.3902 C.ar    1  LIG1       -0.0456
     25 C          -1.2481   -1.1932    0.0390 C.3     1  LIG1       -0.0652
     26 C           5.9454    0.3286    4.9936 C.ar    1  LIG1        0.0224
     27 C          -1.4017    2.0630    7.7017 C.ar    1  LIG1        0.1273
     28 C          -2.8393    0.7334    9.1267 C.ar    1  LIG1       -0.0092
     29 C           5.6837   -1.9346    4.2221 C.ar    1  LIG1       -0.0191
     30 C          -3.7071    1.8071    9.1702 C.ar    1  LIG1        0.1667
     31 C           6.5020   -0.8472    4.4906 C.ar    1  LIG1        0.1236
     32 C          -3.4362    2.9833    8.5168 C.ar    1  LIG1        0.1697
     33 C          -2.2924    3.1452    7.7765 C.ar    1  LIG1        0.0258
     34 C           1.3400   -0.3161    9.7098 C.2     1  LIG1        0.0680
     35 C           4.9099    2.5099    6.3637 C.3     1  LIG1        0.1153
     36 C          -5.3689    3.1526    9.4482 C.3     1  LIG1        0.2332
     37 C           4.2431    3.5085    7.2886 C.ar    1  LIG1       -0.0016
     38 C           3.8626    4.8155    6.8995 C.ar    1  LIG1        0.0037
     39 C           4.0159    3.0997    8.6228 C.ar    1  LIG1       -0.0547
     40 C           0.6018    3.1370    7.2275 C.3     1  LIG1        0.0788
     41 C           3.2854    5.6626    7.8731 C.ar    1  LIG1       -0.0525
     42 C           3.4654    3.9660    9.5686 C.ar    1  LIG1       -0.0614
     43 C           8.3178   -1.4460    3.1451 C.3     1  LIG1        0.0788
     44 C           3.1015    5.2507    9.1948 C.ar    1  LIG1       -0.0611
     45 C           4.0438    5.3831    5.5047 C.2     1  LIG1        0.0720
     46 H           2.7854   -1.5210    2.3229 H       1  LIG1        0.0509
     47 H           2.2704    0.1122    1.8626 H       1  LIG1        0.0509
     48 H           0.3037   -2.2580    1.9206 H       1  LIG1        0.0283
     49 H           1.4113   -2.0744    0.5712 H       1  LIG1        0.0283
     50 H           0.5146    0.0268   -0.1037 H       1  LIG1        0.0263
     51 H          -0.4059    0.2445    1.3791 H       1  LIG1        0.0263
     52 H          -0.9164   -0.0390    5.5372 H       1  LIG1        0.0854
     53 H           2.6335   -0.2374    7.4754 H       1  LIG1        0.0628
     54 H          -1.0670   -1.1051    9.0614 H       1  LIG1        0.0363
     55 H          -1.1177   -0.9627    7.3663 H       1  LIG1        0.0363
     56 H           3.6701   -2.6717    4.1772 H       1  LIG1        0.0626
     57 H          -0.9388   -1.9643   -0.6734 H       1  LIG1        0.0230
     58 H          -1.8626   -0.4611   -0.4952 H       1  LIG1        0.0230
     59 H          -1.8757   -1.6632    0.8039 H       1  LIG1        0.0230
     60 H           6.6307    1.1429    5.2079 H       1  LIG1        0.0691
     61 H          -3.0823   -0.1850    9.6500 H       1  LIG1        0.0659
     62 H           6.0956   -2.8830    3.8953 H       1  LIG1        0.0654
     63 H          -2.1079    4.0589    7.2258 H       1  LIG1        0.0692
     64 H           5.5262    3.0045    5.6132 H       1  LIG1        0.0748
     65 H           5.6022    1.9376    6.9992 H       1  LIG1        0.0748
     66 H          -5.5757    3.7119   10.3689 H       1  LIG1        0.1166
     67 H          -6.3034    3.0605    8.8820 H       1  LIG1        0.1166
     68 H           4.2646    2.0838    8.9320 H       1  LIG1        0.0622
     69 H           1.5201    2.9275    6.6780 H       1  LIG1        0.0660
     70 H           0.8112    3.0798    8.3016 H       1  LIG1        0.0660
     71 H           0.2691    4.1429    6.9554 H       1  LIG1        0.0660
     72 H           2.9789    6.6655    7.5766 H       1  LIG1        0.0624
     73 H           3.3052    3.6183   10.5845 H       1  LIG1        0.0618
     74 H           9.3603   -1.1444    2.9998 H       1  LIG1        0.0660
     75 H           7.7441   -1.0885    2.2823 H       1  LIG1        0.0660
     76 H           8.2927   -2.5383    3.2045 H       1  LIG1        0.0660
     77 H           2.6592    5.9282    9.9170 H       1  LIG1        0.0618
@<TRIPOS>BOND
     1     1    35    1
     2     1    21    1
     3     2    36    1
     4     2    30    1
     5     3    32    1
     6     3    36    1
     7     4    27    1
     8     4    40    1
     9     5    31    1
    10     5    43    1
    11     6    34   ar
    12     7    34   ar
    13     8    45   ar
    14     9    45   ar
    15    10    11   ar
    16    10    12   ar
    17    10    13    1
    18    11    18   ar
    19    12    15   ar
    20    13    14    1
    21    14    17    1
    22    15    18   ar
    23    15    19    1
    24    16    24   ar
    25    16    21   ar
    26    16    12    1
    27    17    25    1
    28    19    22    2
    29    20    22    1
    30    20    23    1
    31    21    26   ar
    32    22    34    1
    33    23    28   ar
    34    23    27   ar
    35    24    29   ar
    36    26    31   ar
    37    27    33   ar
    38    28    30   ar
    39    29    31   ar
    40    30    32   ar
    41    32    33   ar
    42    35    37    1
    43    37    39   ar
    44    37    38   ar
    45    38    41   ar
    46    38    45    1
    47    39    42   ar
    48    41    44   ar
    49    42    44   ar
    50    13    46    1
    51    13    47    1
    52    14    48    1
    53    14    49    1
    54    17    50    1
    55    17    51    1
    56    18    52    1
    57    19    53    1
    58    20    54    1
    59    20    55    1
    60    24    56    1
    61    25    57    1
    62    25    58    1
    63    25    59    1
    64    26    60    1
    65    28    61    1
    66    29    62    1
    67    33    63    1
    68    35    64    1
    69    35    65    1
    70    36    66    1
    71    36    67    1
    72    39    68    1
    73    40    69    1
    74    40    70    1
    75    40    71    1
    76    41    72    1
    77    42    73    1
    78    43    74    1
    79    43    75    1
    80    43    76    1
    81    44    77    1
@<TRIPOS>MOLECULE
2-[[2-[2-butyl-4-[(Z)-2-carboxy-3-(6-methoxy-1,3-benzodioxol-5-yl)prop-1-enyl]pyrazol-3-yl]-5-methoxyphenoxy]methyl]benzoic acid
 77 81 0 0 0
SMALL
GASTEIGER

@<TRIPOS>ATOM
      1 O           3.8206    0.2680    2.3285 O.3     1  LIG1       -0.4866
      2 O           1.6221    3.5532   12.8670 O.3     1  LIG1       -0.4526
      3 O          -0.6908    3.0250   13.3064 O.3     1  LIG1       -0.4525
      4 O          -1.2273    0.8275    9.0733 O.3     1  LIG1       -0.4947
      5 O           8.0108    0.4987    4.7622 O.3     1  LIG1       -0.4950
      6 O           2.1608   -1.8984    9.9624 O.co2   1  LIG1       -0.5449
      7 O           3.5686   -0.1072   10.1428 O.co2   1  LIG1       -0.5449
      8 O           2.2001    3.1772    0.5190 O.co2   1  LIG1       -0.5446
      9 O           1.1399    2.9098   -1.4431 O.co2   1  LIG1       -0.5446
     10 N           1.4345   -0.6489    3.8032 N.ar    1  LIG1       -0.2630
     11 N           0.1560   -0.4249    4.2111 N.ar    1  LIG1       -0.1785
     12 C           2.3783   -0.5062    4.8240 C.ar    1  LIG1        0.0795
     13 C           1.6025   -1.3058    2.5097 C.3     1  LIG1        0.0422
     14 C           0.5736   -2.4213    2.2635 C.3     1  LIG1       -0.0336
     15 C           1.5705   -0.6276    5.9682 C.ar    1  LIG1        0.0207
     16 C           3.8666   -0.3193    4.6672 C.ar    1  LIG1        0.0425
     17 C           0.9543   -3.3686    1.1257 C.3     1  LIG1       -0.0542
     18 C           0.2428   -0.4996    5.5342 C.ar    1  LIG1        0.0571
     19 C           1.9545   -0.9320    7.3068 C.2     1  LIG1       -0.0459
     20 C           1.6289    1.3275    8.4399 C.3     1  LIG1        0.0029
     21 C           4.5287    0.1512    3.4967 C.ar    1  LIG1        0.1336
     22 C           1.9875   -0.1256    8.3864 C.2     1  LIG1       -0.0200
     23 C           0.9152    1.7884    9.7002 C.ar    1  LIG1        0.0023
     24 C           4.6858   -0.5147    5.8021 C.ar    1  LIG1       -0.0456
     25 C           1.0669   -2.6801   -0.2227 C.3     1  LIG1       -0.0652
     26 C           5.9207    0.3911    3.5135 C.ar    1  LIG1        0.0224
     27 C          -0.4467    1.5205    9.9623 C.ar    1  LIG1        0.1273
     28 C           1.6619    2.4894   10.6714 C.ar    1  LIG1       -0.0092
     29 C           6.0557   -0.2385    5.8158 C.ar    1  LIG1       -0.0191
     30 C           1.0408    2.8728   11.8407 C.ar    1  LIG1        0.1667
     31 C           6.6689    0.2452    4.6786 C.ar    1  LIG1        0.1236
     32 C          -0.2776    2.5767   12.0885 C.ar    1  LIG1        0.1697
     33 C          -1.0480    1.8952   11.1729 C.ar    1  LIG1        0.0258
     34 C           2.6152   -0.7612    9.6358 C.2     1  LIG1        0.0680
     35 C           4.1801    1.2646    1.3563 C.3     1  LIG1        0.1153
     36 C           0.5435    3.5680   13.8186 C.3     1  LIG1        0.2332
     37 C           3.8085    0.7498   -0.0279 C.ar    1  LIG1       -0.0016
     38 C           2.8226    1.3131   -0.8758 C.ar    1  LIG1        0.0037
     39 C           4.5420   -0.3743   -0.4909 C.ar    1  LIG1       -0.0547
     40 C          -1.8117    1.7108    8.1184 C.3     1  LIG1        0.0788
     41 C           2.6056    0.6974   -2.1358 C.ar    1  LIG1       -0.0525
     42 C           4.3162   -0.9391   -1.7463 C.ar    1  LIG1       -0.0614
     43 C           8.3876    1.7297    4.1486 C.3     1  LIG1        0.0788
     44 C           3.3395   -0.4064   -2.5692 C.ar    1  LIG1       -0.0611
     45 C           1.9830    2.5518   -0.5620 C.2     1  LIG1        0.0720
     46 H           2.5995   -1.7543    2.4904 H       1  LIG1        0.0509
     47 H           1.5156   -0.5275    1.7454 H       1  LIG1        0.0509
     48 H          -0.4084   -1.9783    2.0541 H       1  LIG1        0.0283
     49 H           0.4572   -3.0216    3.1751 H       1  LIG1        0.0283
     50 H           0.1925   -4.1543    1.0575 H       1  LIG1        0.0263
     51 H           1.9022   -3.8665    1.3609 H       1  LIG1        0.0263
     52 H          -0.6615   -0.4997    6.1273 H       1  LIG1        0.0854
     53 H           2.2945   -1.9601    7.4455 H       1  LIG1        0.0628
     54 H           1.0204    1.6200    7.5781 H       1  LIG1        0.0363
     55 H           2.5561    1.9061    8.3284 H       1  LIG1        0.0363
     56 H           4.2803   -0.8696    6.7424 H       1  LIG1        0.0626
     57 H           0.1429   -2.1522   -0.4768 H       1  LIG1        0.0230
     58 H           1.2656   -3.4176   -1.0070 H       1  LIG1        0.0230
     59 H           1.8878   -1.9608   -0.2257 H       1  LIG1        0.0230
     60 H           6.4496    0.6583    2.6093 H       1  LIG1        0.0691
     61 H           2.7206    2.6818   10.5228 H       1  LIG1        0.0659
     62 H           6.6190   -0.3819    6.7341 H       1  LIG1        0.0654
     63 H          -2.0798    1.6464   11.3829 H       1  LIG1        0.0692
     64 H           5.2542    1.4670    1.3090 H       1  LIG1        0.0748
     65 H           3.7259    2.2013    1.6585 H       1  LIG1        0.0748
     66 H           0.3653    4.6041   14.1284 H       1  LIG1        0.1166
     67 H           0.8441    2.9894   14.7007 H       1  LIG1        0.1166
     68 H           5.3029   -0.8149    0.1494 H       1  LIG1        0.0622
     69 H          -2.8150    1.3388    7.8897 H       1  LIG1        0.0660
     70 H          -1.2270    1.6962    7.1954 H       1  LIG1        0.0660
     71 H          -1.9063    2.7422    8.4780 H       1  LIG1        0.0660
     72 H           1.8398    1.1083   -2.7936 H       1  LIG1        0.0624
     73 H           4.8960   -1.7982   -2.0722 H       1  LIG1        0.0618
     74 H           9.3550    2.0271    4.5650 H       1  LIG1        0.0660
     75 H           7.6727    2.5334    4.3604 H       1  LIG1        0.0660
     76 H           8.5145    1.5971    3.0698 H       1  LIG1        0.0660
     77 H           3.1369   -0.8352   -3.5455 H       1  LIG1        0.0618
@<TRIPOS>BOND
     1     1    35    1
     2     1    21    1
     3     2    36    1
     4     2    30    1
     5     3    32    1
     6     3    36    1
     7     4    27    1
     8     4    40    1
     9     5    31    1
    10     5    43    1
    11     6    34   ar
    12     7    34   ar
    13     8    45   ar
    14     9    45   ar
    15    10    11   ar
    16    10    12   ar
    17    10    13    1
    18    11    18   ar
    19    12    15   ar
    20    13    14    1
    21    14    17    1
    22    15    18   ar
    23    15    19    1
    24    16    24   ar
    25    16    21   ar
    26    16    12    1
    27    17    25    1
    28    19    22    2
    29    20    22    1
    30    20    23    1
    31    21    26   ar
    32    22    34    1
    33    23    28   ar
    34    23    27   ar
    35    24    29   ar
    36    26    31   ar
    37    27    33   ar
    38    28    30   ar
    39    29    31   ar
    40    30    32   ar
    41    32    33   ar
    42    35    37    1
    43    37    39   ar
    44    37    38   ar
    45    38    41   ar
    46    38    45    1
    47    39    42   ar
    48    41    44   ar
    49    42    44   ar
    50    13    46    1
    51    13    47    1
    52    14    48    1
    53    14    49    1
    54    17    50    1
    55    17    51    1
    56    18    52    1
    57    19    53    1
    58    20    54    1
    59    20    55    1
    60    24    56    1
    61    25    57    1
    62    25    58    1
    63    25    59    1
    64    26    60    1
    65    28    61    1
    66    29    62    1
    67    33    63    1
    68    35    64    1
    69    35    65    1
    70    36    66    1
    71    36    67    1
    72    39    68    1
    73    40    69    1
    74    40    70    1
    75    40    71    1
    76    41    72    1
    77    42    73    1
    78    43    74    1
    79    43    75    1
    80    43    76    1
    81    44    77    1
@<TRIPOS>MOLECULE
2-[[2-[2-butyl-4-[(Z)-2-carboxy-3-(6-methoxy-1,3-benzodioxol-5-yl)prop-1-enyl]pyrazol-3-yl]-5-methoxyphenoxy]methyl]benzoic acid
 77 81 0 0 0
SMALL
GASTEIGER

@<TRIPOS>ATOM
      1 O           4.0418    1.6203    5.7346 O.3     1  LIG1       -0.4866
      2 O          -4.1476    2.3891    6.2083 O.3     1  LIG1       -0.4526
      3 O          -3.8638    4.0786    7.9024 O.3     1  LIG1       -0.4525
      4 O          -0.6737    1.2984   10.3014 O.3     1  LIG1       -0.4947
      5 O           7.8888   -0.9120    4.4154 O.3     1  LIG1       -0.4950
      6 O           2.3898   -0.1737   10.0310 O.co2   1  LIG1       -0.5449
      7 O           0.8158   -1.8023   10.2779 O.co2   1  LIG1       -0.5449
      8 O           4.7958    4.8904    4.7794 O.co2   1  LIG1       -0.5446
      9 O           2.8230    5.9698    4.9962 O.co2   1  LIG1       -0.5446
     10 N           1.4967   -0.3447    3.7184 N.ar    1  LIG1       -0.2630
     11 N           0.2770    0.1874    3.9270 N.ar    1  LIG1       -0.1785
     12 C           2.2785   -0.3992    4.8632 C.ar    1  LIG1        0.0795
     13 C           1.8175   -0.7964    2.3733 C.3     1  LIG1        0.0422
     14 C           0.6422   -1.4639    1.6308 C.3     1  LIG1       -0.0336
     15 C           1.3872   -0.1271    5.8994 C.ar    1  LIG1        0.0207
     16 C           3.7422   -0.5812    4.8561 C.ar    1  LIG1        0.0425
     17 C          -0.1873   -0.4677    0.8143 C.3     1  LIG1       -0.0542
     18 C           0.2533    0.3763    5.2438 C.ar    1  LIG1        0.0571
     19 C           1.6338   -0.2553    7.3044 C.2     1  LIG1       -0.0459
     20 C          -0.7614   -0.6395    8.2161 C.3     1  LIG1        0.0029
     21 C           4.6119    0.4685    5.2350 C.ar    1  LIG1        0.1336
     22 C           0.7427   -0.4741    8.3028 C.2     1  LIG1       -0.0200
     23 C          -1.6093    0.6327    8.2341 C.ar    1  LIG1        0.0023
     24 C           4.3011   -1.7901    4.4078 C.ar    1  LIG1       -0.0456
     25 C          -1.4116   -1.1272    0.1965 C.3     1  LIG1       -0.0652
     26 C           5.9957    0.3152    5.0611 C.ar    1  LIG1        0.0224
     27 C          -1.5180    1.5968    9.2705 C.ar    1  LIG1        0.1273
     28 C          -2.5586    0.8300    7.2075 C.ar    1  LIG1       -0.0092
     29 C           5.6838   -1.9307    4.2421 C.ar    1  LIG1       -0.0191
     30 C          -3.2608    2.0146    7.1705 C.ar    1  LIG1        0.1667
     31 C           6.5257   -0.8643    4.5407 C.ar    1  LIG1        0.1236
     32 C          -3.0998    2.9754    8.1366 C.ar    1  LIG1        0.1697
     33 C          -2.2527    2.7910    9.2065 C.ar    1  LIG1        0.0258
     34 C           1.3659   -0.8221    9.6789 C.2     1  LIG1        0.0680
     35 C           4.9119    2.4973    6.4595 C.3     1  LIG1        0.1153
     36 C          -4.3958    3.7528    6.6027 C.3     1  LIG1        0.2332
     37 C           4.1430    3.4706    7.3277 C.ar    1  LIG1       -0.0016
     38 C           3.6064    4.6899    6.8547 C.ar    1  LIG1        0.0037
     39 C           3.9622    3.1204    8.6838 C.ar    1  LIG1       -0.0547
     40 C          -0.9557    1.8841   11.5596 C.3     1  LIG1        0.0788
     41 C           2.9102    5.5139    7.7773 C.ar    1  LIG1       -0.0525
     42 C           3.3006    3.9657    9.5754 C.ar    1  LIG1       -0.0614
     43 C           8.3261   -1.4315    3.1649 C.3     1  LIG1        0.0788
     44 C           2.7749    5.1646    9.1210 C.ar    1  LIG1       -0.0611
     45 C           3.7391    5.1916    5.4281 C.2     1  LIG1        0.0720
     46 H           2.6048   -1.5472    2.4556 H       1  LIG1        0.0509
     47 H           2.2181    0.0611    1.8243 H       1  LIG1        0.0509
     48 H          -0.0001   -2.0097    2.3348 H       1  LIG1        0.0283
     49 H           1.0471   -2.2121    0.9377 H       1  LIG1        0.0283
     50 H           0.4354   -0.0489    0.0154 H       1  LIG1        0.0263
     51 H          -0.5176    0.3708    1.4348 H       1  LIG1        0.0263
     52 H          -0.6001    0.8706    5.6652 H       1  LIG1        0.0854
     53 H           2.6878   -0.2423    7.5880 H       1  LIG1        0.0628
     54 H          -1.1457   -1.2815    9.0173 H       1  LIG1        0.0363
     55 H          -0.9852   -1.2048    7.3011 H       1  LIG1        0.0363
     56 H           3.6543   -2.6324    4.1777 H       1  LIG1        0.0626
     57 H          -1.1287   -1.9694   -0.4426 H       1  LIG1        0.0230
     58 H          -1.9606   -0.4048   -0.4163 H       1  LIG1        0.0230
     59 H          -2.0909   -1.4958    0.9721 H       1  LIG1        0.0230
     60 H           6.6847    1.1193    5.2961 H       1  LIG1        0.0691
     61 H          -2.6951    0.0949    6.4207 H       1  LIG1        0.0659
     62 H           6.0822   -2.8765    3.8941 H       1  LIG1        0.0654
     63 H          -2.1470    3.5732    9.9454 H       1  LIG1        0.0692
     64 H           5.5922    3.0159    5.7805 H       1  LIG1        0.0748
     65 H           5.5526    1.9068    7.1310 H       1  LIG1        0.0748
     66 H          -5.4786    3.9189    6.6184 H       1  LIG1        0.1166
     67 H          -3.9517    4.4255    5.8578 H       1  LIG1        0.1166
     68 H           4.3248    2.1629    9.0568 H       1  LIG1        0.0622
     69 H          -0.3574    1.3641   12.3137 H       1  LIG1        0.0660
     70 H          -2.0104    1.7619   11.8308 H       1  LIG1        0.0660
     71 H          -0.6690    2.9399   11.5746 H       1  LIG1        0.0660
     72 H           2.4757    6.4442    7.4179 H       1  LIG1        0.0624
     73 H           3.1794    3.6604   10.6102 H       1  LIG1        0.0618
     74 H           9.3731   -1.1409    3.0313 H       1  LIG1        0.0660
     75 H           7.7555   -1.0160    2.3261 H       1  LIG1        0.0660
     76 H           8.2809   -2.5247    3.1626 H       1  LIG1        0.0660
     77 H           2.2411    5.8217    9.7990 H       1  LIG1        0.0618
@<TRIPOS>BOND
     1     1    35    1
     2     1    21    1
     3     2    36    1
     4     2    30    1
     5     3    32    1
     6     3    36    1
     7     4    27    1
     8     4    40    1
     9     5    31    1
    10     5    43    1
    11     6    34   ar
    12     7    34   ar
    13     8    45   ar
    14     9    45   ar
    15    10    11   ar
    16    10    12   ar
    17    10    13    1
    18    11    18   ar
    19    12    15   ar
    20    13    14    1
    21    14    17    1
    22    15    18   ar
    23    15    19    1
    24    16    24   ar
    25    16    21   ar
    26    16    12    1
    27    17    25    1
    28    19    22    2
    29    20    22    1
    30    20    23    1
    31    21    26   ar
    32    22    34    1
    33    23    28   ar
    34    23    27   ar
    35    24    29   ar
    36    26    31   ar
    37    27    33   ar
    38    28    30   ar
    39    29    31   ar
    40    30    32   ar
    41    32    33   ar
    42    35    37    1
    43    37    39   ar
    44    37    38   ar
    45    38    41   ar
    46    38    45    1
    47    39    42   ar
    48    41    44   ar
    49    42    44   ar
    50    13    46    1
    51    13    47    1
    52    14    48    1
    53    14    49    1
    54    17    50    1
    55    17    51    1
    56    18    52    1
    57    19    53    1
    58    20    54    1
    59    20    55    1
    60    24    56    1
    61    25    57    1
    62    25    58    1
    63    25    59    1
    64    26    60    1
    65    28    61    1
    66    29    62    1
    67    33    63    1
    68    35    64    1
    69    35    65    1
    70    36    66    1
    71    36    67    1
    72    39    68    1
    73    40    69    1
    74    40    70    1
    75    40    71    1
    76    41    72    1
    77    42    73    1
    78    43    74    1
    79    43    75    1
    80    43    76    1
    81    44    77    1
@<TRIPOS>MOLECULE
2-[[2-[2-butyl-4-[(Z)-2-carboxy-3-(6-methoxy-1,3-benzodioxol-5-yl)prop-1-enyl]pyrazol-3-yl]-5-methoxyphenoxy]methyl]benzoic acid
 77 81 0 0 0
SMALL
GASTEIGER

@<TRIPOS>ATOM
      1 O           4.0353    1.6261    5.7319 O.3     1  LIG1       -0.4866
      2 O          -4.1784    2.3711    6.2434 O.3     1  LIG1       -0.4526
      3 O          -3.8502    4.0914    7.8978 O.3     1  LIG1       -0.4525
      4 O          -0.5815    1.3833   10.2539 O.3     1  LIG1       -0.4947
      5 O           7.8870   -0.9033    4.4170 O.3     1  LIG1       -0.4950
      6 O           0.7464   -1.7318   10.3477 O.co2   1  LIG1       -0.5449
      7 O           2.4492   -0.2637    9.9992 O.co2   1  LIG1       -0.5449
      8 O           4.7492    4.9135    4.7824 O.co2   1  LIG1       -0.5446
      9 O           2.7911    6.0045    5.0304 O.co2   1  LIG1       -0.5446
     10 N           1.4981   -0.3410    3.7229 N.ar    1  LIG1       -0.2630
     11 N           0.2737    0.1772    3.9335 N.ar    1  LIG1       -0.1785
     12 C           2.2776   -0.4000    4.8690 C.ar    1  LIG1        0.0795
     13 C           1.8263   -0.7771    2.3742 C.3     1  LIG1        0.0422
     14 C           0.6603   -1.4557    1.6272 C.3     1  LIG1       -0.0336
     15 C           1.3844   -0.1382    5.9059 C.ar    1  LIG1        0.0207
     16 C           3.7411   -0.5791    4.8617 C.ar    1  LIG1        0.0425
     17 C          -0.1815   -0.4642    0.8166 C.3     1  LIG1       -0.0542
     18 C           0.2455    0.3576    5.2525 C.ar    1  LIG1        0.0571
     19 C           1.6347   -0.2719    7.3109 C.2     1  LIG1       -0.0459
     20 C          -0.7583   -0.6343    8.2255 C.3     1  LIG1        0.0029
     21 C           4.6083    0.4742    5.2359 C.ar    1  LIG1        0.1336
     22 C           0.7472   -0.4863    8.3128 C.2     1  LIG1       -0.0200
     23 C          -1.5939    0.6454    8.2390 C.ar    1  LIG1        0.0023
     24 C           4.3010   -1.7889    4.4175 C.ar    1  LIG1       -0.0456
     25 C          -1.4021   -1.1322    0.2012 C.3     1  LIG1       -0.0652
     26 C           5.9919    0.3220    5.0616 C.ar    1  LIG1        0.0224
     27 C          -1.4720    1.6323    9.2484 C.ar    1  LIG1        0.1273
     28 C          -2.5698    0.8257    7.2332 C.ar    1  LIG1       -0.0092
     29 C           5.6835   -1.9280    4.2527 C.ar    1  LIG1       -0.0191
     30 C          -3.2703    2.0119    7.1919 C.ar    1  LIG1        0.1667
     31 C           6.5229   -0.8583    4.5465 C.ar    1  LIG1        0.1236
     32 C          -3.0831    2.9907    8.1352 C.ar    1  LIG1        0.1697
     33 C          -2.2067    2.8266    9.1841 C.ar    1  LIG1        0.0258
     34 C           1.3664   -0.8346    9.7008 C.2     1  LIG1        0.0680
     35 C           4.9018    2.5119    6.4492 C.3     1  LIG1        0.1153
     36 C          -4.4104    3.7438    6.6161 C.3     1  LIG1        0.2332
     37 C           4.1275    3.4750    7.3268 C.ar    1  LIG1       -0.0016
     38 C           3.5812    4.6963    6.8685 C.ar    1  LIG1        0.0037
     39 C           3.9515    3.1089    8.6813 C.ar    1  LIG1       -0.0547
     40 C          -0.9550    1.8368   11.5442 C.3     1  LIG1        0.0788
     41 C           2.8918    5.5065    7.8002 C.ar    1  LIG1       -0.0525
     42 C           3.2887    3.9410    9.5842 C.ar    1  LIG1       -0.0614
     43 C           8.3226   -1.4359    3.1710 C.3     1  LIG1        0.0788
     44 C           2.7576    5.1430    9.1429 C.ar    1  LIG1       -0.0611
     45 C           3.7049    5.2160    5.4440 C.2     1  LIG1        0.0720
     46 H           2.6240   -1.5173    2.4506 H       1  LIG1        0.0509
     47 H           2.2125    0.0914    1.8331 H       1  LIG1        0.0509
     48 H           0.0238   -2.0138    2.3280 H       1  LIG1        0.0283
     49 H           1.0732   -2.1950    0.9299 H       1  LIG1        0.0283
     50 H           0.4347   -0.0375    0.0169 H       1  LIG1        0.0263
     51 H          -0.5171    0.3697    1.4405 H       1  LIG1        0.0263
     52 H          -0.6141    0.8393    5.6745 H       1  LIG1        0.0854
     53 H           2.6899   -0.2630    7.5887 H       1  LIG1        0.0628
     54 H          -1.1532   -1.2716    9.0247 H       1  LIG1        0.0363
     55 H          -0.9851   -1.1988    7.3107 H       1  LIG1        0.0363
     56 H           3.6546   -2.6320    4.1902 H       1  LIG1        0.0626
     57 H          -1.1148   -1.9711   -0.4403 H       1  LIG1        0.0230
     58 H          -1.9593   -0.4136   -0.4084 H       1  LIG1        0.0230
     59 H          -2.0761   -1.5082    0.9782 H       1  LIG1        0.0230
     60 H           6.6801    1.1292    5.2926 H       1  LIG1        0.0691
     61 H          -2.7271    0.0769    6.4638 H       1  LIG1        0.0659
     62 H           6.0833   -2.8753    3.9084 H       1  LIG1        0.0654
     63 H          -2.0703    3.6223    9.9025 H       1  LIG1        0.0692
     64 H           5.5696    3.0385    5.7650 H       1  LIG1        0.0748
     65 H           5.5553    1.9293    7.1155 H       1  LIG1        0.0748
     66 H          -5.4916    3.9170    6.6504 H       1  LIG1        0.1166
     67 H          -3.9783    4.3991    5.8495 H       1  LIG1        0.1166
     68 H           4.3200    2.1479    9.0431 H       1  LIG1        0.0622
     69 H          -0.3420    1.3051   12.2776 H       1  LIG1        0.0660
     70 H          -2.0059    1.6149   11.7641 H       1  LIG1        0.0660
     71 H          -0.7541    2.9067   11.6521 H       1  LIG1        0.0660
     72 H           2.4507    6.4407    7.4567 H       1  LIG1        0.0624
     73 H           3.1714    3.6245   10.6156 H       1  LIG1        0.0618
     74 H           9.3686   -1.1432    3.0319 H       1  LIG1        0.0660
     75 H           7.7490   -1.0321    2.3292 H       1  LIG1        0.0660
     76 H           8.2827   -2.5287    3.1816 H       1  LIG1        0.0660
     77 H           2.2232    5.7907    9.8294 H       1  LIG1        0.0618
@<TRIPOS>BOND
     1     1    35    1
     2     1    21    1
     3     2    36    1
     4     2    30    1
     5     3    32    1
     6     3    36    1
     7     4    27    1
     8     4    40    1
     9     5    31    1
    10     5    43    1
    11     6    34   ar
    12     7    34   ar
    13     8    45   ar
    14     9    45   ar
    15    10    11   ar
    16    10    12   ar
    17    10    13    1
    18    11    18   ar
    19    12    15   ar
    20    13    14    1
    21    14    17    1
    22    15    18   ar
    23    15    19    1
    24    16    24   ar
    25    16    21   ar
    26    16    12    1
    27    17    25    1
    28    19    22    2
    29    20    22    1
    30    20    23    1
    31    21    26   ar
    32    22    34    1
    33    23    28   ar
    34    23    27   ar
    35    24    29   ar
    36    26    31   ar
    37    27    33   ar
    38    28    30   ar
    39    29    31   ar
    40    30    32   ar
    41    32    33   ar
    42    35    37    1
    43    37    39   ar
    44    37    38   ar
    45    38    41   ar
    46    38    45    1
    47    39    42   ar
    48    41    44   ar
    49    42    44   ar
    50    13    46    1
    51    13    47    1
    52    14    48    1
    53    14    49    1
    54    17    50    1
    55    17    51    1
    56    18    52    1
    57    19    53    1
    58    20    54    1
    59    20    55    1
    60    24    56    1
    61    25    57    1
    62    25    58    1
    63    25    59    1
    64    26    60    1
    65    28    61    1
    66    29    62    1
    67    33    63    1
    68    35    64    1
    69    35    65    1
    70    36    66    1
    71    36    67    1
    72    39    68    1
    73    40    69    1
    74    40    70    1
    75    40    71    1
    76    41    72    1
    77    42    73    1
    78    43    74    1
    79    43    75    1
    80    43    76    1
    81    44    77    1
@<TRIPOS>MOLECULE
2-[[2-[2-butyl-4-[(Z)-2-carboxy-3-(6-methoxy-1,3-benzodioxol-5-yl)prop-1-enyl]pyrazol-3-yl]-5-methoxyphenoxy]methyl]benzoic acid
 77 81 0 0 0
SMALL
GASTEIGER

@<TRIPOS>ATOM
      1 O           4.6361   -0.4582    2.4628 O.3     1  LIG1       -0.4866
      2 O          -5.3254    0.5869    6.8786 O.3     1  LIG1       -0.4526
      3 O          -5.4339   -1.7011    6.1188 O.3     1  LIG1       -0.4525
      4 O          -0.7994   -2.4782    7.2150 O.3     1  LIG1       -0.4947
      5 O           7.9340    1.5958    5.1707 O.3     1  LIG1       -0.4950
      6 O           1.1379    0.1584   10.3652 O.co2   1  LIG1       -0.5449
      7 O           1.8891   -1.8211    9.5133 O.co2   1  LIG1       -0.5449
      8 O           6.3341   -4.3865    2.7501 O.co2   1  LIG1       -0.5446
      9 O           8.3483   -4.1306    3.7589 O.co2   1  LIG1       -0.5446
     10 N           1.7733   -0.2171    3.4899 N.ar    1  LIG1       -0.2630
     11 N           0.5534    0.3618    3.6279 N.ar    1  LIG1       -0.1785
     12 C           2.5210   -0.1067    4.6648 C.ar    1  LIG1        0.0795
     13 C           1.8184   -1.3479    2.5669 C.3     1  LIG1        0.0422
     14 C           1.6628   -0.9725    1.0896 C.3     1  LIG1       -0.0336
     15 C           1.5068   -0.1290    5.6402 C.ar    1  LIG1        0.0207
     16 C           3.9925    0.1508    4.7564 C.ar    1  LIG1        0.0425
     17 C           0.2010   -0.7209    0.6927 C.3     1  LIG1       -0.0542
     18 C           0.3542    0.2854    4.9430 C.ar    1  LIG1        0.0571
     19 C           1.6470   -0.4486    7.0317 C.2     1  LIG1       -0.0459
     20 C          -0.5561    0.3930    8.0772 C.3     1  LIG1        0.0029
     21 C           4.9338    0.0618    3.7059 C.ar    1  LIG1        0.1336
     22 C           0.7856   -0.2766    8.0594 C.2     1  LIG1       -0.0200
     23 C          -1.8000   -0.3165    7.5437 C.ar    1  LIG1        0.0023
     24 C           4.4803    0.6968    5.9723 C.ar    1  LIG1       -0.0456
     25 C           0.0417   -0.5068   -0.8035 C.3     1  LIG1       -0.0652
     26 C           6.2334    0.5870    3.8613 C.ar    1  LIG1        0.0224
     27 C          -1.8857   -1.6577    7.0951 C.ar    1  LIG1        0.1273
     28 C          -2.9664    0.4844    7.4857 C.ar    1  LIG1       -0.0092
     29 C           5.7972    1.1391    6.1454 C.ar    1  LIG1       -0.0191
     30 C          -4.1329   -0.0573    6.9923 C.ar    1  LIG1        0.1667
     31 C           6.6675    1.0876    5.0783 C.ar    1  LIG1        0.1236
     32 C          -4.1937   -1.3568    6.5606 C.ar    1  LIG1        0.1697
     33 C          -3.0947   -2.1835    6.6071 C.ar    1  LIG1        0.0258
     34 C           1.3127   -0.7015    9.4493 C.2     1  LIG1        0.0680
     35 C           5.2856   -1.7522    2.2640 C.3     1  LIG1        0.1153
     36 C          -6.1424   -0.4635    6.3269 C.3     1  LIG1        0.2332
     37 C           6.6885   -1.6671    1.6829 C.ar    1  LIG1       -0.0016
     38 C           7.7052   -2.5612    2.0928 C.ar    1  LIG1        0.0037
     39 C           7.0009   -0.6686    0.7394 C.ar    1  LIG1       -0.0547
     40 C          -0.4582   -3.1726    6.0183 C.3     1  LIG1        0.0788
     41 C           9.0259   -2.3352    1.6593 C.ar    1  LIG1       -0.0525
     42 C           8.3137   -0.4794    0.3019 C.ar    1  LIG1       -0.0614
     43 C           8.7911    0.6407    5.7981 C.3     1  LIG1        0.0788
     44 C           9.3310   -1.2966    0.7824 C.ar    1  LIG1       -0.0611
     45 C           7.4323   -3.7803    2.9504 C.2     1  LIG1        0.0720
     46 H           1.0151   -2.0334    2.8703 H       1  LIG1        0.0509
     47 H           2.7414   -1.8961    2.7459 H       1  LIG1        0.0509
     48 H           2.0423   -1.8066    0.4871 H       1  LIG1        0.0283
     49 H           2.2720   -0.0942    0.8485 H       1  LIG1        0.0283
     50 H          -0.1897    0.1637    1.2045 H       1  LIG1        0.0263
     51 H          -0.4201   -1.5721    0.9972 H       1  LIG1        0.0263
     52 H          -0.6290    0.5212    5.3140 H       1  LIG1        0.0854
     53 H           2.5768   -0.9643    7.2848 H       1  LIG1        0.0628
     54 H          -0.4529    1.3399    7.5281 H       1  LIG1        0.0363
     55 H          -0.8089    0.6988    9.1005 H       1  LIG1        0.0363
     56 H           3.8211    0.8379    6.8241 H       1  LIG1        0.0626
     57 H           0.6241    0.3562   -1.1405 H       1  LIG1        0.0230
     58 H          -1.0104   -0.3223   -1.0470 H       1  LIG1        0.0230
     59 H           0.3688   -1.3875   -1.3641 H       1  LIG1        0.0230
     60 H           6.9280    0.6072    3.0311 H       1  LIG1        0.0691
     61 H          -2.9459    1.5152    7.8263 H       1  LIG1        0.0659
     62 H           6.1088    1.5495    7.0997 H       1  LIG1        0.0654
     63 H          -3.1756   -3.2168    6.2951 H       1  LIG1        0.0692
     64 H           4.6696   -2.3006    1.5413 H       1  LIG1        0.0748
     65 H           5.2492   -2.2987    3.2122 H       1  LIG1        0.0748
     66 H          -6.5459   -0.1244    5.3657 H       1  LIG1        0.1166
     67 H          -6.9793   -0.6511    7.0097 H       1  LIG1        0.1166
     68 H           6.2196    0.0020    0.3883 H       1  LIG1        0.0622
     69 H           0.6096   -3.4084    6.0540 H       1  LIG1        0.0660
     70 H          -0.6426   -2.5739    5.1186 H       1  LIG1        0.0660
     71 H          -1.0089   -4.1169    5.9610 H       1  LIG1        0.0660
     72 H           9.8141   -2.9973    2.0169 H       1  LIG1        0.0624
     73 H           8.5432    0.3220   -0.3928 H       1  LIG1        0.0618
     74 H           9.8242    0.9471    5.6071 H       1  LIG1        0.0660
     75 H           8.6576   -0.3690    5.3930 H       1  LIG1        0.0660
     76 H           8.6318    0.6445    6.8817 H       1  LIG1        0.0660
     77 H          10.3587   -1.1404    0.4727 H       1  LIG1        0.0618
@<TRIPOS>BOND
     1     1    35    1
     2     1    21    1
     3     2    36    1
     4     2    30    1
     5     3    32    1
     6     3    36    1
     7     4    27    1
     8     4    40    1
     9     5    31    1
    10     5    43    1
    11     6    34   ar
    12     7    34   ar
    13     8    45   ar
    14     9    45   ar
    15    10    11   ar
    16    10    12   ar
    17    10    13    1
    18    11    18   ar
    19    12    15   ar
    20    13    14    1
    21    14    17    1
    22    15    18   ar
    23    15    19    1
    24    16    24   ar
    25    16    21   ar
    26    16    12    1
    27    17    25    1
    28    19    22    2
    29    20    22    1
    30    20    23    1
    31    21    26   ar
    32    22    34    1
    33    23    28   ar
    34    23    27   ar
    35    24    29   ar
    36    26    31   ar
    37    27    33   ar
    38    28    30   ar
    39    29    31   ar
    40    30    32   ar
    41    32    33   ar
    42    35    37    1
    43    37    39   ar
    44    37    38   ar
    45    38    41   ar
    46    38    45    1
    47    39    42   ar
    48    41    44   ar
    49    42    44   ar
    50    13    46    1
    51    13    47    1
    52    14    48    1
    53    14    49    1
    54    17    50    1
    55    17    51    1
    56    18    52    1
    57    19    53    1
    58    20    54    1
    59    20    55    1
    60    24    56    1
    61    25    57    1
    62    25    58    1
    63    25    59    1
    64    26    60    1
    65    28    61    1
    66    29    62    1
    67    33    63    1
    68    35    64    1
    69    35    65    1
    70    36    66    1
    71    36    67    1
    72    39    68    1
    73    40    69    1
    74    40    70    1
    75    40    71    1
    76    41    72    1
    77    42    73    1
    78    43    74    1
    79    43    75    1
    80    43    76    1
    81    44    77    1
@<TRIPOS>MOLECULE
2-[[2-[2-butyl-4-[(Z)-2-carboxy-3-(6-methoxy-1,3-benzodioxol-5-yl)prop-1-enyl]pyrazol-3-yl]-5-methoxyphenoxy]methyl]benzoic acid
 77 81 0 0 0
SMALL
GASTEIGER

@<TRIPOS>ATOM
      1 O           4.1280    1.6155    5.7493 O.3     1  LIG1       -0.4866
      2 O          -4.0734    1.1172    4.7705 O.3     1  LIG1       -0.4526
      3 O          -4.0963    3.3275    5.7308 O.3     1  LIG1       -0.4525
      4 O          -1.1722    1.9490    9.3367 O.3     1  LIG1       -0.4947
      5 O           7.9335   -1.0321    4.5117 O.3     1  LIG1       -0.4950
      6 O           0.8812   -1.5765   10.1684 O.co2   1  LIG1       -0.5449
      7 O           2.0104    0.4029   10.0450 O.co2   1  LIG1       -0.5449
      8 O           5.7461    5.2299    5.2694 O.co2   1  LIG1       -0.5446
      9 O           3.8394    6.4317    5.1174 O.co2   1  LIG1       -0.5446
     10 N           1.5956   -0.3273    3.6711 N.ar    1  LIG1       -0.2630
     11 N           0.4523    0.3728    3.7840 N.ar    1  LIG1       -0.1785
     12 C           2.3357   -0.3609    4.8448 C.ar    1  LIG1        0.0795
     13 C           1.9073   -0.9240    2.3829 C.3     1  LIG1        0.0422
     14 C           0.6989   -1.5086    1.6258 C.3     1  LIG1       -0.0336
     15 C           1.4225    0.0278    5.8222 C.ar    1  LIG1        0.0207
     16 C           3.7929   -0.5922    4.8977 C.ar    1  LIG1        0.0425
     17 C          -0.1095   -0.5106    0.7887 C.3     1  LIG1       -0.0542
     18 C           0.3912    0.6354    5.0884 C.ar    1  LIG1        0.0571
     19 C           1.5956   -0.0296    7.2399 C.2     1  LIG1       -0.0459
     20 C          -0.8055   -0.6143    8.0730 C.3     1  LIG1        0.0029
     21 C           4.6814    0.4470    5.2720 C.ar    1  LIG1        0.1336
     22 C           0.6676   -0.2875    8.1915 C.2     1  LIG1       -0.0200
     23 C          -1.7397    0.4688    7.5542 C.ar    1  LIG1        0.0023
     24 C           4.3330   -1.8233    4.4873 C.ar    1  LIG1       -0.0456
     25 C           0.6937    0.1143   -0.3410 C.3     1  LIG1       -0.0652
     26 C           6.0644    0.2622    5.1187 C.ar    1  LIG1        0.0224
     27 C          -1.8164    1.7544    8.1438 C.ar    1  LIG1        0.1273
     28 C          -2.5496    0.1843    6.4332 C.ar    1  LIG1       -0.0092
     29 C           5.7142   -1.9951    4.3429 C.ar    1  LIG1       -0.0191
     30 C          -3.3025    1.2037    5.8892 C.ar    1  LIG1        0.1667
     31 C           6.5715   -0.9373    4.6265 C.ar    1  LIG1        0.1236
     32 C          -3.3150    2.4638    6.4362 C.ar    1  LIG1        0.1697
     33 C          -2.6065    2.7649    7.5776 C.ar    1  LIG1        0.0258
     34 C           1.2354   -0.4941    9.6120 C.2     1  LIG1        0.0680
     35 C           5.0186    2.5409    6.3915 C.3     1  LIG1        0.1153
     36 C          -4.4465    2.4990    4.6055 C.3     1  LIG1        0.2332
     37 C           4.2578    3.5250    7.2553 C.ar    1  LIG1       -0.0016
     38 C           4.0432    4.8801    6.9168 C.ar    1  LIG1        0.0037
     39 C           3.7536    3.0434    8.4830 C.ar    1  LIG1       -0.0547
     40 C          -0.3848    3.1353    9.3709 C.3     1  LIG1        0.0788
     41 C           3.3162    5.6925    7.8183 C.ar    1  LIG1       -0.0525
     42 C           3.0759    3.8748    9.3721 C.ar    1  LIG1       -0.0614
     43 C           8.3461   -1.4233    3.2046 C.3     1  LIG1        0.0788
     44 C           2.8467    5.2017    9.0372 C.ar    1  LIG1       -0.0611
     45 C           4.5744    5.5432    5.6574 C.2     1  LIG1        0.0720
     46 H           2.5773   -1.7649    2.5710 H       1  LIG1        0.0509
     47 H           2.4596   -0.1815    1.8023 H       1  LIG1        0.0509
     48 H           0.0219   -2.0067    2.3328 H       1  LIG1        0.0283
     49 H           1.0631   -2.2927    0.9506 H       1  LIG1        0.0283
     50 H          -0.5331    0.2807    1.4135 H       1  LIG1        0.0263
     51 H          -0.9625   -1.0447    0.3504 H       1  LIG1        0.0263
     52 H          -0.4019    1.2681    5.4448 H       1  LIG1        0.0854
     53 H           2.6263    0.0799    7.5808 H       1  LIG1        0.0628
     54 H          -1.2192   -0.9249    9.0405 H       1  LIG1        0.0363
     55 H          -0.8896   -1.5057    7.4353 H       1  LIG1        0.0363
     56 H           3.6747   -2.6593    4.2700 H       1  LIG1        0.0626
     57 H           1.4815    0.7685    0.0410 H       1  LIG1        0.0230
     58 H           0.0401    0.7207   -0.9758 H       1  LIG1        0.0230
     59 H           1.1548   -0.6562   -0.9677 H       1  LIG1        0.0230
     60 H           6.7703    1.0541    5.3476 H       1  LIG1        0.0691
     61 H          -2.5252   -0.7901    5.9579 H       1  LIG1        0.0659
     62 H           6.1034   -2.9533    4.0206 H       1  LIG1        0.0654
     63 H          -2.6679    3.7540    8.0127 H       1  LIG1        0.0692
     64 H           5.6306    3.0194    5.6315 H       1  LIG1        0.0748
     65 H           5.6994    2.0044    7.0696 H       1  LIG1        0.0748
     66 H          -5.5314    2.5521    4.4602 H       1  LIG1        0.1166
     67 H          -3.9557    2.8939    3.7067 H       1  LIG1        0.1166
     68 H           3.8824    1.9956    8.7580 H       1  LIG1        0.0622
     69 H           0.3379    3.0292   10.1845 H       1  LIG1        0.0660
     70 H          -1.0126    4.0014    9.6047 H       1  LIG1        0.0660
     71 H           0.1613    3.2989    8.4353 H       1  LIG1        0.0660
     72 H           3.1314    6.7317    7.5517 H       1  LIG1        0.0624
     73 H           2.7104    3.4576   10.3078 H       1  LIG1        0.0618
     74 H           9.3991   -1.1471    3.0912 H       1  LIG1        0.0660
     75 H           7.7790   -0.9076    2.4213 H       1  LIG1        0.0660
     76 H           8.2701   -2.5078    3.0866 H       1  LIG1        0.0660
     77 H           2.3008    5.8505    9.7126 H       1  LIG1        0.0618
@<TRIPOS>BOND
     1     1    35    1
     2     1    21    1
     3     2    36    1
     4     2    30    1
     5     3    32    1
     6     3    36    1
     7     4    27    1
     8     4    40    1
     9     5    31    1
    10     5    43    1
    11     6    34   ar
    12     7    34   ar
    13     8    45   ar
    14     9    45   ar
    15    10    11   ar
    16    10    12   ar
    17    10    13    1
    18    11    18   ar
    19    12    15   ar
    20    13    14    1
    21    14    17    1
    22    15    18   ar
    23    15    19    1
    24    16    24   ar
    25    16    21   ar
    26    16    12    1
    27    17    25    1
    28    19    22    2
    29    20    22    1
    30    20    23    1
    31    21    26   ar
    32    22    34    1
    33    23    28   ar
    34    23    27   ar
    35    24    29   ar
    36    26    31   ar
    37    27    33   ar
    38    28    30   ar
    39    29    31   ar
    40    30    32   ar
    41    32    33   ar
    42    35    37    1
    43    37    39   ar
    44    37    38   ar
    45    38    41   ar
    46    38    45    1
    47    39    42   ar
    48    41    44   ar
    49    42    44   ar
    50    13    46    1
    51    13    47    1
    52    14    48    1
    53    14    49    1
    54    17    50    1
    55    17    51    1
    56    18    52    1
    57    19    53    1
    58    20    54    1
    59    20    55    1
    60    24    56    1
    61    25    57    1
    62    25    58    1
    63    25    59    1
    64    26    60    1
    65    28    61    1
    66    29    62    1
    67    33    63    1
    68    35    64    1
    69    35    65    1
    70    36    66    1
    71    36    67    1
    72    39    68    1
    73    40    69    1
    74    40    70    1
    75    40    71    1
    76    41    72    1
    77    42    73    1
    78    43    74    1
    79    43    75    1
    80    43    76    1
    81    44    77    1
@<TRIPOS>MOLECULE
2-[[2-[2-butyl-4-[(Z)-2-carboxy-3-(6-methoxy-1,3-benzodioxol-5-yl)prop-1-enyl]pyrazol-3-yl]-5-methoxyphenoxy]methyl]benzoic acid
 77 81 0 0 0
SMALL
GASTEIGER

@<TRIPOS>ATOM
      1 O           4.5676    1.6569    5.4631 O.3     1  LIG1       -0.4866
      2 O           1.5989   -6.0652    9.1128 O.3     1  LIG1       -0.4526
      3 O          -0.5293   -6.9866    9.7738 O.3     1  LIG1       -0.4525
      4 O          -2.8586   -2.9409    8.4748 O.3     1  LIG1       -0.4947
      5 O           7.8986   -1.7212    4.8565 O.3     1  LIG1       -0.4950
      6 O           2.2947   -1.2283   10.0122 O.co2   1  LIG1       -0.5449
      7 O           0.1797   -0.4353   10.3829 O.co2   1  LIG1       -0.5449
      8 O           8.0815    3.3465    6.8308 O.co2   1  LIG1       -0.5446
      9 O           8.2923    5.4301    7.6668 O.co2   1  LIG1       -0.5446
     10 N           1.6854   -0.1797    3.7598 N.ar    1  LIG1       -0.2630
     11 N           0.4408    0.3156    3.9494 N.ar    1  LIG1       -0.1785
     12 C           2.4452   -0.2284    4.9236 C.ar    1  LIG1        0.0795
     13 C           2.0291   -0.7727    2.4727 C.3     1  LIG1        0.0422
     14 C           0.8912   -0.8548    1.4393 C.3     1  LIG1       -0.0336
     15 C           1.5066   -0.0637    5.9326 C.ar    1  LIG1        0.0207
     16 C           3.8714   -0.5934    4.9656 C.ar    1  LIG1        0.0425
     17 C           1.0474   -2.0074    0.4409 C.3     1  LIG1       -0.0542
     18 C           0.3293    0.3518    5.2776 C.ar    1  LIG1        0.0571
     19 C           1.6837   -0.2438    7.3379 C.2     1  LIG1       -0.0459
     20 C          -0.3989   -1.6865    7.7989 C.3     1  LIG1        0.0029
     21 C           4.9045    0.3319    5.2422 C.ar    1  LIG1        0.1336
     22 C           0.8421   -0.9060    8.1627 C.2     1  LIG1       -0.0200
     23 C          -0.4757   -3.1163    8.3281 C.ar    1  LIG1        0.0023
     24 C           4.2126   -1.9357    4.7066 C.ar    1  LIG1       -0.0456
     25 C           2.3491   -1.9853   -0.3403 C.3     1  LIG1       -0.0652
     26 C           6.2360   -0.1266    5.2311 C.ar    1  LIG1        0.0224
     27 C          -1.7243   -3.6869    8.6908 C.ar    1  LIG1        0.1273
     28 C           0.6889   -3.9042    8.4343 C.ar    1  LIG1       -0.0092
     29 C           5.5444   -2.3531    4.6408 C.ar    1  LIG1       -0.0191
     30 C           0.5770   -5.1843    8.9336 C.ar    1  LIG1        0.1667
     31 C           6.5598   -1.4408    4.8870 C.ar    1  LIG1        0.1236
     32 C          -0.6362   -5.7119    9.3048 C.ar    1  LIG1        0.1697
     33 C          -1.8072   -4.9989    9.1794 C.ar    1  LIG1        0.0258
     34 C           1.1441   -0.8423    9.6694 C.2     1  LIG1        0.0680
     35 C           5.6426    2.5048    5.9393 C.3     1  LIG1        0.1153
     36 C           0.9031   -7.1566    9.7384 C.3     1  LIG1        0.2332
     37 C           5.3510    3.9995    5.9223 C.ar    1  LIG1       -0.0016
     38 C           6.3142    4.9283    6.4147 C.ar    1  LIG1        0.0037
     39 C           4.1662    4.4861    5.3396 C.ar    1  LIG1       -0.0547
     40 C          -3.7466   -2.9333    9.5894 C.3     1  LIG1        0.0788
     41 C           6.0330    6.3073    6.3032 C.ar    1  LIG1       -0.0525
     42 C           3.9270    5.8578    5.2302 C.ar    1  LIG1       -0.0614
     43 C           8.2932   -2.7563    3.9685 C.3     1  LIG1        0.0788
     44 C           4.8597    6.7689    5.7106 C.ar    1  LIG1       -0.0611
     45 C           7.6572    4.5283    7.0282 C.2     1  LIG1        0.0720
     46 H           2.3624   -1.7913    2.6937 H       1  LIG1        0.0509
     47 H           2.8736   -0.2027    2.0722 H       1  LIG1        0.0509
     48 H           0.8225    0.0984    0.9017 H       1  LIG1        0.0283
     49 H          -0.0772   -1.0049    1.9317 H       1  LIG1        0.0283
     50 H           0.2091   -1.9719   -0.2658 H       1  LIG1        0.0263
     51 H           0.9645   -2.9633    0.9728 H       1  LIG1        0.0263
     52 H          -0.6114    0.6490    5.7224 H       1  LIG1        0.0854
     53 H           2.5715    0.2163    7.7744 H       1  LIG1        0.0628
     54 H          -0.5135   -1.7699    6.7134 H       1  LIG1        0.0363
     55 H          -1.2594   -1.1095    8.1595 H       1  LIG1        0.0363
     56 H           3.4270   -2.6731    4.5572 H       1  LIG1        0.0626
     57 H           2.4752   -1.0359   -0.8686 H       1  LIG1        0.0230
     58 H           2.3521   -2.7913   -1.0819 H       1  LIG1        0.0230
     59 H           3.2109   -2.1378    0.3166 H       1  LIG1        0.0230
     60 H           7.0725    0.5248    5.4707 H       1  LIG1        0.0691
     61 H           1.6644   -3.5047    8.1701 H       1  LIG1        0.0659
     62 H           5.7555   -3.3942    4.4288 H       1  LIG1        0.0654
     63 H          -2.7507   -5.4559    9.4430 H       1  LIG1        0.0692
     64 H           6.4895    2.4010    5.2552 H       1  LIG1        0.0748
     65 H           5.8771    2.1932    6.9636 H       1  LIG1        0.0748
     66 H           1.2698   -7.2688   10.7661 H       1  LIG1        0.1166
     67 H           1.1278   -8.0766    9.1870 H       1  LIG1        0.1166
     68 H           3.4255    3.7882    4.9551 H       1  LIG1        0.0622
     69 H          -4.3896   -2.0521    9.5002 H       1  LIG1        0.0660
     70 H          -3.2165   -2.8691   10.5464 H       1  LIG1        0.0660
     71 H          -4.3927   -3.8172    9.5647 H       1  LIG1        0.0660
     72 H           6.7633    7.0248    6.6778 H       1  LIG1        0.0624
     73 H           3.0123    6.2093    4.7657 H       1  LIG1        0.0618
     74 H           9.3819   -2.7076    3.8634 H       1  LIG1        0.0660
     75 H           7.8582   -2.6223    2.9722 H       1  LIG1        0.0660
     76 H           8.0420   -3.7382    4.3794 H       1  LIG1        0.0660
     77 H           4.6856    7.8364    5.6267 H       1  LIG1        0.0618
@<TRIPOS>BOND
     1     1    35    1
     2     1    21    1
     3     2    36    1
     4     2    30    1
     5     3    32    1
     6     3    36    1
     7     4    27    1
     8     4    40    1
     9     5    31    1
    10     5    43    1
    11     6    34   ar
    12     7    34   ar
    13     8    45   ar
    14     9    45   ar
    15    10    11   ar
    16    10    12   ar
    17    10    13    1
    18    11    18   ar
    19    12    15   ar
    20    13    14    1
    21    14    17    1
    22    15    18   ar
    23    15    19    1
    24    16    24   ar
    25    16    21   ar
    26    16    12    1
    27    17    25    1
    28    19    22    2
    29    20    22    1
    30    20    23    1
    31    21    26   ar
    32    22    34    1
    33    23    28   ar
    34    23    27   ar
    35    24    29   ar
    36    26    31   ar
    37    27    33   ar
    38    28    30   ar
    39    29    31   ar
    40    30    32   ar
    41    32    33   ar
    42    35    37    1
    43    37    39   ar
    44    37    38   ar
    45    38    41   ar
    46    38    45    1
    47    39    42   ar
    48    41    44   ar
    49    42    44   ar
    50    13    46    1
    51    13    47    1
    52    14    48    1
    53    14    49    1
    54    17    50    1
    55    17    51    1
    56    18    52    1
    57    19    53    1
    58    20    54    1
    59    20    55    1
    60    24    56    1
    61    25    57    1
    62    25    58    1
    63    25    59    1
    64    26    60    1
    65    28    61    1
    66    29    62    1
    67    33    63    1
    68    35    64    1
    69    35    65    1
    70    36    66    1
    71    36    67    1
    72    39    68    1
    73    40    69    1
    74    40    70    1
    75    40    71    1
    76    41    72    1
    77    42    73    1
    78    43    74    1
    79    43    75    1
    80    43    76    1
    81    44    77    1
@<TRIPOS>MOLECULE
2-[[2-[2-butyl-4-[(Z)-2-carboxy-3-(6-methoxy-1,3-benzodioxol-5-yl)prop-1-enyl]pyrazol-3-yl]-5-methoxyphenoxy]methyl]benzoic acid
 77 81 0 0 0
SMALL
GASTEIGER

@<TRIPOS>ATOM
      1 O           3.9688    1.5896    5.7091 O.3     1  LIG1       -0.4866
      2 O          -1.3369    4.1367    9.7017 O.3     1  LIG1       -0.4526
      3 O          -3.4332    4.3735    8.5344 O.3     1  LIG1       -0.4525
      4 O          -3.2736   -0.2361    7.0122 O.3     1  LIG1       -0.4947
      5 O           7.7928   -0.9732    4.4523 O.3     1  LIG1       -0.4950
      6 O           0.7064   -0.5065   10.7235 O.co2   1  LIG1       -0.5449
      7 O           2.4484   -1.5457    9.6854 O.co2   1  LIG1       -0.5449
      8 O           4.6405    4.8431    4.7506 O.co2   1  LIG1       -0.5446
      9 O           2.6690    5.9005    5.0387 O.co2   1  LIG1       -0.5446
     10 N           1.3803   -0.3771    3.7123 N.ar    1  LIG1       -0.2630
     11 N           0.1140    0.0181    3.9530 N.ar    1  LIG1       -0.1785
     12 C           2.1732   -0.4279    4.8497 C.ar    1  LIG1        0.0795
     13 C           1.7317   -0.7391    2.3467 C.3     1  LIG1        0.0422
     14 C           0.6001   -1.4311    1.5614 C.3     1  LIG1       -0.0336
     15 C           1.2814   -0.2392    5.9040 C.ar    1  LIG1        0.0207
     16 C           3.6363   -0.6071    4.8322 C.ar    1  LIG1        0.0425
     17 C          -0.2645   -0.4388    0.7776 C.3     1  LIG1       -0.0542
     18 C           0.0787    0.1363    5.2800 C.ar    1  LIG1        0.0571
     19 C           1.5808   -0.3832    7.2985 C.2     1  LIG1       -0.0459
     20 C          -0.7788   -0.6202    8.3093 C.3     1  LIG1        0.0029
     21 C           4.5185    0.4305    5.2048 C.ar    1  LIG1        0.1336
     22 C           0.7323   -0.5543    8.3375 C.2     1  LIG1       -0.0200
     23 C          -1.5240    0.7127    8.3359 C.ar    1  LIG1        0.0023
     24 C           4.1815   -1.8289    4.4016 C.ar    1  LIG1       -0.0456
     25 C          -1.4736   -1.1164    0.1500 C.3     1  LIG1       -0.0652
     26 C           5.9003    0.2491    5.0341 C.ar    1  LIG1        0.0224
     27 C          -2.7713    0.8655    7.6668 C.ar    1  LIG1        0.1273
     28 C          -1.0038    1.8066    9.0586 C.ar    1  LIG1       -0.0092
     29 C           5.5635   -2.0018    4.2592 C.ar    1  LIG1       -0.0191
     30 C          -1.7041    2.9933    9.0620 C.ar    1  LIG1        0.1667
     31 C           6.4287   -0.9545    4.5608 C.ar    1  LIG1        0.1236
     32 C          -2.9001    3.1270    8.4016 C.ar    1  LIG1        0.1697
     33 C          -3.4686    2.0819    7.7080 C.ar    1  LIG1        0.0258
     34 C           1.3674   -0.8808    9.7137 C.2     1  LIG1        0.0680
     35 C           4.8612    2.4575    6.4186 C.3     1  LIG1        0.1153
     36 C          -2.3776    5.0286    9.2704 C.3     1  LIG1        0.2332
     37 C           4.1158    3.4211    7.3195 C.ar    1  LIG1       -0.0016
     38 C           3.5293    4.6261    6.8668 C.ar    1  LIG1        0.0037
     39 C           4.0082    3.0773    8.6877 C.ar    1  LIG1       -0.0547
     40 C          -3.9531    0.0540    5.7939 C.3     1  LIG1        0.0788
     41 C           2.8504    5.4305    7.8104 C.ar    1  LIG1       -0.0525
     42 C           3.3583    3.9060    9.6008 C.ar    1  LIG1       -0.0614
     43 C           8.3845   -2.1537    3.9336 C.3     1  LIG1        0.0788
     44 C           2.7735    5.0845    9.1603 C.ar    1  LIG1       -0.0611
     45 C           3.6076    5.1332    5.4336 C.2     1  LIG1        0.0720
     46 H           2.5623   -1.4458    2.3954 H       1  LIG1        0.0509
     47 H           2.0845    0.1688    1.8480 H       1  LIG1        0.0509
     48 H          -0.0233   -2.0378    2.2313 H       1  LIG1        0.0283
     49 H           1.0475   -2.1287    0.8420 H       1  LIG1        0.0283
     50 H           0.3408    0.0186   -0.0138 H       1  LIG1        0.0263
     51 H          -0.6132    0.3734    1.4229 H       1  LIG1        0.0263
     52 H          -0.8391    0.4726    5.7275 H       1  LIG1        0.0854
     53 H           2.6473   -0.4141    7.5355 H       1  LIG1        0.0628
     54 H          -1.1540   -1.2233    9.1458 H       1  LIG1        0.0363
     55 H          -1.0678   -1.1903    7.4179 H       1  LIG1        0.0363
     56 H           3.5198   -2.6603    4.1687 H       1  LIG1        0.0626
     57 H          -1.1724   -1.9418   -0.5024 H       1  LIG1        0.0230
     58 H          -2.0401   -0.3973   -0.4504 H       1  LIG1        0.0230
     59 H          -2.1429   -1.5126    0.9207 H       1  LIG1        0.0230
     60 H           6.6002    1.0499    5.2556 H       1  LIG1        0.0691
     61 H          -0.0652    1.7306    9.5991 H       1  LIG1        0.0659
     62 H           5.9261   -2.9607    3.9088 H       1  LIG1        0.0654
     63 H          -4.4260    2.2210    7.2263 H       1  LIG1        0.0692
     64 H           5.5240    2.9835    5.7284 H       1  LIG1        0.0748
     65 H           5.5175    1.8603    7.0689 H       1  LIG1        0.0748
     66 H          -1.9388    5.8098    8.6380 H       1  LIG1        0.1166
     67 H          -2.8183    5.5031   10.1544 H       1  LIG1        0.1166
     68 H           4.4301    2.1402    9.0489 H       1  LIG1        0.0622
     69 H          -3.9962   -0.8680    5.2061 H       1  LIG1        0.0660
     70 H          -3.4283    0.8072    5.1951 H       1  LIG1        0.0660
     71 H          -4.9829    0.3663    5.9952 H       1  LIG1        0.0660
     72 H           2.3764    6.3491    7.4676 H       1  LIG1        0.0624
     73 H           3.2914    3.6140   10.6444 H       1  LIG1        0.0618
     74 H           9.4692   -2.0047    3.9220 H       1  LIG1        0.0660
     75 H           8.0629   -2.3348    2.9030 H       1  LIG1        0.0660
     76 H           8.1763   -3.0176    4.5727 H       1  LIG1        0.0660
     77 H           2.2445    5.7266    9.8558 H       1  LIG1        0.0618
@<TRIPOS>BOND
     1     1    35    1
     2     1    21    1
     3     2    36    1
     4     2    30    1
     5     3    32    1
     6     3    36    1
     7     4    27    1
     8     4    40    1
     9     5    31    1
    10     5    43    1
    11     6    34   ar
    12     7    34   ar
    13     8    45   ar
    14     9    45   ar
    15    10    11   ar
    16    10    12   ar
    17    10    13    1
    18    11    18   ar
    19    12    15   ar
    20    13    14    1
    21    14    17    1
    22    15    18   ar
    23    15    19    1
    24    16    24   ar
    25    16    21   ar
    26    16    12    1
    27    17    25    1
    28    19    22    2
    29    20    22    1
    30    20    23    1
    31    21    26   ar
    32    22    34    1
    33    23    28   ar
    34    23    27   ar
    35    24    29   ar
    36    26    31   ar
    37    27    33   ar
    38    28    30   ar
    39    29    31   ar
    40    30    32   ar
    41    32    33   ar
    42    35    37    1
    43    37    39   ar
    44    37    38   ar
    45    38    41   ar
    46    38    45    1
    47    39    42   ar
    48    41    44   ar
    49    42    44   ar
    50    13    46    1
    51    13    47    1
    52    14    48    1
    53    14    49    1
    54    17    50    1
    55    17    51    1
    56    18    52    1
    57    19    53    1
    58    20    54    1
    59    20    55    1
    60    24    56    1
    61    25    57    1
    62    25    58    1
    63    25    59    1
    64    26    60    1
    65    28    61    1
    66    29    62    1
    67    33    63    1
    68    35    64    1
    69    35    65    1
    70    36    66    1
    71    36    67    1
    72    39    68    1
    73    40    69    1
    74    40    70    1
    75    40    71    1
    76    41    72    1
    77    42    73    1
    78    43    74    1
    79    43    75    1
    80    43    76    1
    81    44    77    1
@<TRIPOS>MOLECULE
2-[[2-[2-butyl-4-[(Z)-2-carboxy-3-(6-methoxy-1,3-benzodioxol-5-yl)prop-1-enyl]pyrazol-3-yl]-5-methoxyphenoxy]methyl]benzoic acid
 77 81 0 0 0
SMALL
GASTEIGER

@<TRIPOS>ATOM
      1 O           4.3349   -1.1691    6.8473 O.3     1  LIG1       -0.4866
      2 O          -1.5858   -5.9272   10.0472 O.3     1  LIG1       -0.4526
      3 O          -0.5612   -7.3397    8.3811 O.3     1  LIG1       -0.4525
      4 O           0.7831   -3.4903    5.7365 O.3     1  LIG1       -0.4947
      5 O           7.8602   -0.7442    3.4782 O.3     1  LIG1       -0.4950
      6 O           1.7712    0.0806   10.0143 O.co2   1  LIG1       -0.5449
      7 O          -0.1161   -1.1487   10.3154 O.co2   1  LIG1       -0.5449
      8 O           7.6788   -3.4727    8.0308 O.co2   1  LIG1       -0.5446
      9 O           8.4581   -3.1850   10.1343 O.co2   1  LIG1       -0.5446
     10 N           1.4982   -0.2540    3.7379 N.ar    1  LIG1       -0.2630
     11 N           0.3321    0.3943    3.9345 N.ar    1  LIG1       -0.1785
     12 C           2.3695   -0.1684    4.8347 C.ar    1  LIG1        0.0795
     13 C           1.6963   -0.9795    2.4923 C.3     1  LIG1        0.0422
     14 C           0.4223   -1.4426    1.7655 C.3     1  LIG1       -0.0336
     15 C           1.4471   -0.0740    5.8772 C.ar    1  LIG1        0.0207
     16 C           3.8498   -0.2782    4.6805 C.ar    1  LIG1        0.0425
     17 C          -0.4000   -2.4780    2.5362 C.3     1  LIG1       -0.0542
     18 C           0.2603    0.4047    5.2633 C.ar    1  LIG1        0.0571
     19 C           1.5821   -0.2263    7.2900 C.2     1  LIG1       -0.0459
     20 C          -0.4568   -1.7417    7.6313 C.3     1  LIG1        0.0029
     21 C           4.7679   -0.8562    5.5850 C.ar    1  LIG1        0.1336
     22 C           0.7256   -0.9109    8.0919 C.2     1  LIG1       -0.0200
     23 C          -0.3688   -3.2533    7.8092 C.ar    1  LIG1        0.0023
     24 C           4.3944    0.2774    3.4971 C.ar    1  LIG1       -0.0456
     25 C          -1.6609   -2.8552    1.7716 C.3     1  LIG1       -0.0652
     26 C           6.1128   -1.0389    5.1915 C.ar    1  LIG1        0.0224
     27 C           0.2455   -4.0951    6.8454 C.ar    1  LIG1        0.1273
     28 C          -0.9833   -3.8375    8.9367 C.ar    1  LIG1       -0.0092
     29 C           5.7303    0.1135    3.1318 C.ar    1  LIG1       -0.0191
     30 C          -0.9963   -5.2106    9.0515 C.ar    1  LIG1        0.1667
     31 C           6.5876   -0.5902    3.9589 C.ar    1  LIG1        0.1236
     32 C          -0.4147   -6.0140    8.1036 C.ar    1  LIG1        0.1697
     33 C           0.2143   -5.4914    6.9945 C.ar    1  LIG1        0.0258
     34 C           0.8303   -0.6674    9.6241 C.2     1  LIG1        0.0680
     35 C           5.2507   -1.7434    7.8125 C.3     1  LIG1        0.1153
     36 C          -1.2588   -7.2681    9.6406 C.3     1  LIG1        0.2332
     37 C           6.3249   -0.8130    8.3864 C.ar    1  LIG1       -0.0016
     38 C           7.4994   -1.3091    9.0166 C.ar    1  LIG1        0.0037
     39 C           6.1110    0.5814    8.3784 C.ar    1  LIG1       -0.0547
     40 C           1.8867   -4.1692    5.1493 C.3     1  LIG1        0.0788
     41 C           8.3983   -0.3928    9.6096 C.ar    1  LIG1       -0.0525
     42 C           7.0353    1.4675    8.9420 C.ar    1  LIG1       -0.0614
     43 C           8.6758   -1.6806    4.1791 C.3     1  LIG1        0.0788
     44 C           8.1769    0.9816    9.5660 C.ar    1  LIG1       -0.0611
     45 C           7.8797   -2.7746    9.0743 C.2     1  LIG1        0.0720
     46 H           2.3320   -1.8443    2.7090 H       1  LIG1        0.0509
     47 H           2.2363   -0.3067    1.8196 H       1  LIG1        0.0509
     48 H           0.7208   -1.8791    0.8038 H       1  LIG1        0.0283
     49 H          -0.2055   -0.5748    1.5270 H       1  LIG1        0.0283
     50 H          -0.6928   -2.0921    3.5182 H       1  LIG1        0.0263
     51 H           0.2009   -3.3775    2.7067 H       1  LIG1        0.0263
     52 H          -0.6497    0.7381    5.7453 H       1  LIG1        0.0854
     53 H           2.4011    0.3243    7.7515 H       1  LIG1        0.0628
     54 H          -0.6864   -1.5752    6.5746 H       1  LIG1        0.0363
     55 H          -1.3647   -1.3768    8.1317 H       1  LIG1        0.0363
     56 H           3.7690    0.8680    2.8323 H       1  LIG1        0.0626
     57 H          -2.2867   -1.9756    1.5875 H       1  LIG1        0.0230
     58 H          -2.2530   -3.5760    2.3452 H       1  LIG1        0.0230
     59 H          -1.4143   -3.3089    0.8065 H       1  LIG1        0.0230
     60 H           6.8081   -1.5203    5.8718 H       1  LIG1        0.0691
     61 H          -1.4426   -3.2153    9.7003 H       1  LIG1        0.0659
     62 H           6.0932    0.5277    2.1962 H       1  LIG1        0.0654
     63 H           0.6403   -6.1637    6.2629 H       1  LIG1        0.0692
     64 H           5.6532   -2.6559    7.3709 H       1  LIG1        0.0748
     65 H           4.6278   -2.0583    8.6588 H       1  LIG1        0.0748
     66 H          -2.1886   -7.8422    9.5542 H       1  LIG1        0.1166
     67 H          -0.6357   -7.7311   10.4151 H       1  LIG1        0.1166
     68 H           5.2021    0.9853    7.9378 H       1  LIG1        0.0622
     69 H           2.4179   -3.4628    4.5081 H       1  LIG1        0.0660
     70 H           1.5324   -4.9872    4.5126 H       1  LIG1        0.0660
     71 H           2.5955   -4.5385    5.8997 H       1  LIG1        0.0660
     72 H           9.2837   -0.7801   10.1126 H       1  LIG1        0.0624
     73 H           6.8436    2.5367    8.9119 H       1  LIG1        0.0618
     74 H           9.5883   -1.8249    3.5909 H       1  LIG1        0.0660
     75 H           8.1834   -2.6546    4.2658 H       1  LIG1        0.0660
     76 H           8.9676   -1.2886    5.1584 H       1  LIG1        0.0660
     77 H           8.8864    1.6586   10.0286 H       1  LIG1        0.0618
@<TRIPOS>BOND
     1     1    35    1
     2     1    21    1
     3     2    36    1
     4     2    30    1
     5     3    32    1
     6     3    36    1
     7     4    27    1
     8     4    40    1
     9     5    31    1
    10     5    43    1
    11     6    34   ar
    12     7    34   ar
    13     8    45   ar
    14     9    45   ar
    15    10    11   ar
    16    10    12   ar
    17    10    13    1
    18    11    18   ar
    19    12    15   ar
    20    13    14    1
    21    14    17    1
    22    15    18   ar
    23    15    19    1
    24    16    24   ar
    25    16    21   ar
    26    16    12    1
    27    17    25    1
    28    19    22    2
    29    20    22    1
    30    20    23    1
    31    21    26   ar
    32    22    34    1
    33    23    28   ar
    34    23    27   ar
    35    24    29   ar
    36    26    31   ar
    37    27    33   ar
    38    28    30   ar
    39    29    31   ar
    40    30    32   ar
    41    32    33   ar
    42    35    37    1
    43    37    39   ar
    44    37    38   ar
    45    38    41   ar
    46    38    45    1
    47    39    42   ar
    48    41    44   ar
    49    42    44   ar
    50    13    46    1
    51    13    47    1
    52    14    48    1
    53    14    49    1
    54    17    50    1
    55    17    51    1
    56    18    52    1
    57    19    53    1
    58    20    54    1
    59    20    55    1
    60    24    56    1
    61    25    57    1
    62    25    58    1
    63    25    59    1
    64    26    60    1
    65    28    61    1
    66    29    62    1
    67    33    63    1
    68    35    64    1
    69    35    65    1
    70    36    66    1
    71    36    67    1
    72    39    68    1
    73    40    69    1
    74    40    70    1
    75    40    71    1
    76    41    72    1
    77    42    73    1
    78    43    74    1
    79    43    75    1
    80    43    76    1
    81    44    77    1
@<TRIPOS>MOLECULE
2-[[2-[2-butyl-4-[(Z)-2-carboxy-3-(6-methoxy-1,3-benzodioxol-5-yl)prop-1-enyl]pyrazol-3-yl]-5-methoxyphenoxy]methyl]benzoic acid
 77 81 0 0 0
SMALL
GASTEIGER

@<TRIPOS>ATOM
      1 O           4.4375   -1.5855    2.6161 O.3     1  LIG1       -0.4866
      2 O          -4.2224    2.5162    6.1553 O.3     1  LIG1       -0.4526
      3 O          -3.8750    4.2520    7.7928 O.3     1  LIG1       -0.4525
      4 O          -0.4604    1.6920   10.0345 O.3     1  LIG1       -0.4947
      5 O           7.9322    0.9391    4.5180 O.3     1  LIG1       -0.4950
      6 O           0.8139   -1.3253   10.2736 O.co2   1  LIG1       -0.5449
      7 O           2.4764    0.1357    9.7160 O.co2   1  LIG1       -0.5449
      8 O           4.3356   -4.0899    0.9425 O.co2   1  LIG1       -0.5446
      9 O           6.2514   -5.0251    1.7184 O.co2   1  LIG1       -0.5446
     10 N           1.5048   -0.5894    3.5127 N.ar    1  LIG1       -0.2630
     11 N           0.3206    0.0430    3.6756 N.ar    1  LIG1       -0.1785
     12 C           2.3645   -0.3891    4.5891 C.ar    1  LIG1        0.0795
     13 C           1.6362   -1.4752    2.3712 C.3     1  LIG1        0.0422
     14 C           0.3159   -2.0565    1.8451 C.3     1  LIG1       -0.0336
     15 C           1.4390   -0.2330    5.6461 C.ar    1  LIG1        0.0207
     16 C           3.8516   -0.1729    4.5263 C.ar    1  LIG1        0.0425
     17 C           0.5632   -3.0355    0.6985 C.3     1  LIG1       -0.0542
     18 C           0.2562    0.1665    4.9968 C.ar    1  LIG1        0.0571
     19 C           1.6688   -0.2988    7.0644 C.2     1  LIG1       -0.0459
     20 C          -0.7266   -0.4478    8.0638 C.3     1  LIG1        0.0029
     21 C           4.7756   -0.6578    3.5672 C.ar    1  LIG1        0.1336
     22 C           0.7823   -0.3459    8.0917 C.2     1  LIG1       -0.0200
     23 C          -1.5377    0.8457    8.0669 C.ar    1  LIG1        0.0023
     24 C           4.3792    0.7462    5.4690 C.ar    1  LIG1       -0.0456
     25 C          -0.7452   -3.5176    0.0931 C.3     1  LIG1       -0.0652
     26 C           6.1369   -0.2890    3.6224 C.ar    1  LIG1        0.0224
     27 C          -1.3996    1.8492    9.0553 C.ar    1  LIG1        0.1273
     28 C          -2.5441    1.0121    7.0901 C.ar    1  LIG1       -0.0092
     29 C           5.7290    1.1215    5.5085 C.ar    1  LIG1       -0.0191
     30 C          -3.2695    2.1850    7.0684 C.ar    1  LIG1        0.1667
     31 C           6.6116    0.5893    4.5866 C.ar    1  LIG1        0.1236
     32 C          -3.0741    3.1717    8.0017 C.ar    1  LIG1        0.1697
     33 C          -2.1564    3.0302    9.0154 C.ar    1  LIG1        0.0258
     34 C           1.4159   -0.5195    9.5013 C.2     1  LIG1        0.0680
     35 C           4.6565   -1.1765    1.2505 C.3     1  LIG1        0.1153
     36 C          -4.5227    3.8639    6.5644 C.3     1  LIG1        0.2332
     37 C           5.9490   -1.6124    0.5850 C.ar    1  LIG1       -0.0016
     38 C           6.3909   -2.9523    0.5720 C.ar    1  LIG1        0.0037
     39 C           6.6946   -0.6432   -0.1201 C.ar    1  LIG1       -0.0547
     40 C          -1.0128    1.7032   11.3459 C.3     1  LIG1        0.0788
     41 C           7.6033   -3.2616   -0.0795 C.ar    1  LIG1       -0.0525
     42 C           7.8702   -0.9795   -0.7930 C.ar    1  LIG1       -0.0614
     43 C           8.6073    0.7635    5.7602 C.3     1  LIG1        0.0788
     44 C           8.3336   -2.2885   -0.7605 C.ar    1  LIG1       -0.0611
     45 C           5.5907   -4.0975    1.1549 C.2     1  LIG1        0.0720
     46 H           2.2693   -2.3098    2.6787 H       1  LIG1        0.0509
     47 H           2.0930   -0.8732    1.5850 H       1  LIG1        0.0509
     48 H          -0.3340   -1.2452    1.4939 H       1  LIG1        0.0283
     49 H          -0.2184   -2.5661    2.6569 H       1  LIG1        0.0283
     50 H           1.1337   -3.8973    1.0637 H       1  LIG1        0.0263
     51 H           1.1643   -2.5546   -0.0819 H       1  LIG1        0.0263
     52 H          -0.6484    0.5588    5.4181 H       1  LIG1        0.0854
     53 H           2.7168   -0.3806    7.3548 H       1  LIG1        0.0628
     54 H          -1.1022   -1.0534    8.8977 H       1  LIG1        0.0363
     55 H          -1.0055   -1.0423    7.1835 H       1  LIG1        0.0363
     56 H           3.7240    1.2244    6.1959 H       1  LIG1        0.0626
     57 H          -1.3675   -4.0136    0.8446 H       1  LIG1        0.0230
     58 H          -0.5502   -4.2304   -0.7139 H       1  LIG1        0.0230
     59 H          -1.3136   -2.6800   -0.3245 H       1  LIG1        0.0230
     60 H           6.8486   -0.7232    2.9264 H       1  LIG1        0.0691
     61 H          -2.7324    0.2484    6.3417 H       1  LIG1        0.0659
     62 H           6.0513    1.8398    6.2544 H       1  LIG1        0.0654
     63 H          -2.0063    3.8175    9.7424 H       1  LIG1        0.0692
     64 H           4.5292   -0.0873    1.1716 H       1  LIG1        0.0748
     65 H           3.8487   -1.6000    0.6438 H       1  LIG1        0.0748
     66 H          -5.6064    3.9561    6.6967 H       1  LIG1        0.1166
     67 H          -4.2086    4.5524    5.7701 H       1  LIG1        0.1166
     68 H           6.3473    0.3868   -0.1564 H       1  LIG1        0.0622
     69 H          -0.3447    1.1406   12.0044 H       1  LIG1        0.0660
     70 H          -2.0042    1.2365   11.3895 H       1  LIG1        0.0660
     71 H          -1.0659    2.7316   11.7184 H       1  LIG1        0.0660
     72 H           7.9508   -4.2943   -0.0694 H       1  LIG1        0.0624
     73 H           8.4183   -0.2206   -1.3418 H       1  LIG1        0.0618
     74 H           9.6822    0.8285    5.5632 H       1  LIG1        0.0660
     75 H           8.4044   -0.2218    6.1942 H       1  LIG1        0.0660
     76 H           8.3511    1.5607    6.4646 H       1  LIG1        0.0660
     77 H           9.2477   -2.5644   -1.2755 H       1  LIG1        0.0618
@<TRIPOS>BOND
     1     1    35    1
     2     1    21    1
     3     2    36    1
     4     2    30    1
     5     3    32    1
     6     3    36    1
     7     4    27    1
     8     4    40    1
     9     5    31    1
    10     5    43    1
    11     6    34   ar
    12     7    34   ar
    13     8    45   ar
    14     9    45   ar
    15    10    11   ar
    16    10    12   ar
    17    10    13    1
    18    11    18   ar
    19    12    15   ar
    20    13    14    1
    21    14    17    1
    22    15    18   ar
    23    15    19    1
    24    16    24   ar
    25    16    21   ar
    26    16    12    1
    27    17    25    1
    28    19    22    2
    29    20    22    1
    30    20    23    1
    31    21    26   ar
    32    22    34    1
    33    23    28   ar
    34    23    27   ar
    35    24    29   ar
    36    26    31   ar
    37    27    33   ar
    38    28    30   ar
    39    29    31   ar
    40    30    32   ar
    41    32    33   ar
    42    35    37    1
    43    37    39   ar
    44    37    38   ar
    45    38    41   ar
    46    38    45    1
    47    39    42   ar
    48    41    44   ar
    49    42    44   ar
    50    13    46    1
    51    13    47    1
    52    14    48    1
    53    14    49    1
    54    17    50    1
    55    17    51    1
    56    18    52    1
    57    19    53    1
    58    20    54    1
    59    20    55    1
    60    24    56    1
    61    25    57    1
    62    25    58    1
    63    25    59    1
    64    26    60    1
    65    28    61    1
    66    29    62    1
    67    33    63    1
    68    35    64    1
    69    35    65    1
    70    36    66    1
    71    36    67    1
    72    39    68    1
    73    40    69    1
    74    40    70    1
    75    40    71    1
    76    41    72    1
    77    42    73    1
    78    43    74    1
    79    43    75    1
    80    43    76    1
    81    44    77    1
