@<TRIPOS>MOLECULE
11672244
 106 111 0 0 0
SMALL
GASTEIGER

@<TRIPOS>ATOM
      1 O          -3.7581    0.2802   -6.2581 O.3     1  LIG1       -0.4607
      2 O          -6.0824    6.4290   -6.9276 O.2     1  LIG1       -0.2968
      3 O          -6.4138   -4.3880   -9.7045 O.co2   1  LIG1       -0.5492
      4 O          -7.4913   -5.1763   -7.8675 O.co2   1  LIG1       -0.5492
      5 O          -2.0084   -1.1366   -6.7810 O.2     1  LIG1       -0.2456
      6 O           3.6555    2.4503   -6.6881 O.3     1  LIG1       -0.5067
      7 O          -0.2085    5.3201  -11.0384 O.2     1  LIG1       -0.2705
      8 O          -4.7056    4.1826  -13.6751 O.co2   1  LIG1       -0.5452
      9 O          -5.0670    5.4349  -11.7993 O.co2   1  LIG1       -0.5452
     10 N          -0.9723    3.6263   -9.6122 N.am    1  LIG1       -0.2815
     11 C          -6.7206    0.0149   -7.3862 C.3     1  LIG1       -0.0160
     12 C          -5.9344    1.0814   -8.2345 C.3     1  LIG1       -0.0256
     13 C          -5.7120   -1.2120   -6.9800 C.3     1  LIG1        0.0318
     14 C          -6.6000    2.5264   -8.4116 C.3     1  LIG1       -0.0243
     15 C          -7.0802    3.0050   -6.9902 C.3     1  LIG1       -0.0235
     16 C          -7.3226    0.6675   -6.1163 C.3     1  LIG1       -0.0461
     17 C          -4.9661   -1.7320   -8.2302 C.2     1  LIG1       -0.0596
     18 C          -4.3307   -3.1368   -8.1054 C.3     1  LIG1       -0.0080
     19 C          -8.0507    1.9842   -6.3715 C.3     1  LIG1       -0.0483
     20 C          -6.5569   -2.3664   -6.3331 C.3     1  LIG1       -0.0392
     21 C          -5.3853    0.4288   -9.5231 C.3     1  LIG1       -0.0306
     22 C          -5.3131   -4.2069   -7.5673 C.3     1  LIG1        0.0167
     23 C          -7.5434    4.4937   -6.8603 C.3     1  LIG1        0.0267
     24 C          -5.4932    3.5259   -8.8720 C.3     1  LIG1       -0.0404
     25 C          -5.8433   -3.7121   -6.2022 C.3     1  LIG1       -0.0408
     26 C          -7.9178   -0.5413   -8.2257 C.3     1  LIG1       -0.0584
     27 C          -4.8480   -0.9659   -9.3353 C.2     1  LIG1       -0.0835
     28 C          -4.6157   -0.8230   -5.9027 C.3     1  LIG1        0.1025
     29 C          -7.7192    2.5406   -9.4787 C.3     1  LIG1       -0.0590
     30 C          -3.4854   -3.6279   -9.3061 C.3     1  LIG1       -0.0405
     31 C          -4.5807   -5.5540   -7.3367 C.3     1  LIG1       -0.0412
     32 C          -5.9087    4.9947   -8.8254 C.3     1  LIG1        0.0069
     33 C          -2.7674   -4.9767   -9.0556 C.3     1  LIG1       -0.0343
     34 C          -6.4532    5.3859   -7.4743 C.2     1  LIG1        0.1392
     35 C          -3.7723   -6.0270   -8.5462 C.3     1  LIG1       -0.0470
     36 C          -8.8908    4.8239   -7.5142 C.3     1  LIG1       -0.0528
     37 C          -7.6636    4.8732   -5.3600 C.3     1  LIG1       -0.0528
     38 C          -6.5273   -4.6122   -8.4688 C.2     1  LIG1        0.0485
     39 C          -2.1574   -5.4716  -10.3813 C.3     1  LIG1       -0.0598
     40 C          -1.6111   -4.8025   -8.0484 C.3     1  LIG1       -0.0598
     41 C          -2.5249   -0.0323   -6.7218 C.2     1  LIG1        0.3320
     42 C          -1.8019    1.2151   -7.0584 C.2     1  LIG1        0.0231
     43 C          -0.8038    1.1352   -7.9521 C.2     1  LIG1       -0.0460
     44 C           0.2490    2.1540   -8.0740 C.ar    1  LIG1       -0.0001
     45 C           0.1954    3.3154   -8.8713 C.ar    1  LIG1        0.0411
     46 C           1.4193    1.8643   -7.3390 C.ar    1  LIG1       -0.0113
     47 C           1.3186    4.1611   -8.8857 C.ar    1  LIG1       -0.0364
     48 C           2.5148    2.7169   -7.3851 C.ar    1  LIG1        0.1175
     49 C           2.4703    3.8660   -8.1505 C.ar    1  LIG1       -0.0184
     50 C          -1.0969    4.6267  -10.5578 C.2     1  LIG1        0.2411
     51 C          -2.4989    4.8480  -10.9573 C.2     1  LIG1        0.0021
     52 C          -2.9749    4.3665  -12.1126 C.2     1  LIG1       -0.0344
     53 C          -4.3896    4.6997  -12.5674 C.2     1  LIG1        0.0647
     54 H           3.5487    1.5886   -6.2528 H       1  LIG1        0.2921
     55 H          -1.7885    3.0430   -9.4677 H       1  LIG1        0.1551
     56 H          -5.0470    1.3218   -7.6491 H       1  LIG1        0.0315
     57 H          -6.1724    2.9609   -6.3637 H       1  LIG1        0.0315
     58 H          -6.5373    0.8836   -5.3863 H       1  LIG1        0.0271
     59 H          -8.0144   -0.0232   -5.6194 H       1  LIG1        0.0271
     60 H          -3.5850   -3.0078   -7.3119 H       1  LIG1        0.0355
     61 H          -8.9352    1.8269   -6.9945 H       1  LIG1        0.0269
     62 H          -8.4245    2.3307   -5.4041 H       1  LIG1        0.0269
     63 H          -7.4647   -2.5628   -6.9067 H       1  LIG1        0.0275
     64 H          -6.8971   -2.0612   -5.3357 H       1  LIG1        0.0275
     65 H          -6.1506    0.3663  -10.3011 H       1  LIG1        0.0310
     66 H          -4.5747    1.0479   -9.9248 H       1  LIG1        0.0310
     67 H          -5.1703    3.2832   -9.8904 H       1  LIG1        0.0275
     68 H          -4.6080    3.4095   -8.2320 H       1  LIG1        0.0275
     69 H          -6.5353   -4.4357   -5.7527 H       1  LIG1        0.0275
     70 H          -5.0196   -3.6265   -5.4830 H       1  LIG1        0.0275
     71 H          -8.4730    0.2365   -8.7432 H       1  LIG1        0.0235
     72 H          -8.6589   -1.0427   -7.5938 H       1  LIG1        0.0235
     73 H          -7.6009   -1.2586   -8.9887 H       1  LIG1        0.0235
     74 H          -4.3465   -1.3620  -10.2146 H       1  LIG1        0.0572
     75 H          -5.1011   -0.5356   -4.9641 H       1  LIG1        0.0706
     76 H          -4.0034   -1.6862   -5.6210 H       1  LIG1        0.0706
     77 H          -8.6920    2.2457   -9.0828 H       1  LIG1        0.0235
     78 H          -7.4955    1.8933  -10.3286 H       1  LIG1        0.0235
     79 H          -7.8643    3.5266   -9.9240 H       1  LIG1        0.0235
     80 H          -2.7253   -2.8717   -9.5471 H       1  LIG1        0.0276
     81 H          -4.1150   -3.7133  -10.1990 H       1  LIG1        0.0276
     82 H          -5.2900   -6.3467   -7.0635 H       1  LIG1        0.0274
     83 H          -3.9064   -5.4638   -6.4757 H       1  LIG1        0.0274
     84 H          -6.6571    5.2416   -9.5824 H       1  LIG1        0.0342
     85 H          -5.0322    5.6202   -9.0235 H       1  LIG1        0.0342
     86 H          -4.4634   -6.3009   -9.3534 H       1  LIG1        0.0271
     87 H          -3.2452   -6.9519   -8.2782 H       1  LIG1        0.0271
     88 H          -8.8579    4.7998   -8.6036 H       1  LIG1        0.0239
     89 H          -9.2049    5.8430   -7.2557 H       1  LIG1        0.0239
     90 H          -9.6808    4.1452   -7.1778 H       1  LIG1        0.0239
     91 H          -6.7435    4.6334   -4.8146 H       1  LIG1        0.0239
     92 H          -8.4968    4.3617   -4.8692 H       1  LIG1        0.0239
     93 H          -7.8428    5.9475   -5.2300 H       1  LIG1        0.0239
     94 H          -2.9296   -5.6185  -11.1446 H       1  LIG1        0.0235
     95 H          -1.6392   -6.4278  -10.2454 H       1  LIG1        0.0235
     96 H          -1.4319   -4.7513  -10.7758 H       1  LIG1        0.0235
     97 H          -1.9526   -4.4690   -7.0646 H       1  LIG1        0.0235
     98 H          -0.8851   -4.0646   -8.4082 H       1  LIG1        0.0235
     99 H          -1.0755   -5.7475   -7.9006 H       1  LIG1        0.0235
    100 H          -2.0133    2.0939   -6.4647 H       1  LIG1        0.0689
    101 H          -0.6128    0.2081   -8.4926 H       1  LIG1        0.0626
    102 H           1.4598    0.9588   -6.7382 H       1  LIG1        0.0660
    103 H           1.3275    5.0826   -9.4599 H       1  LIG1        0.0637
    104 H           3.3224    4.5379   -8.1868 H       1  LIG1        0.0655
    105 H          -3.0902    5.4807  -10.3072 H       1  LIG1        0.0670
    106 H          -2.3616    3.7683  -12.7774 H       1  LIG1        0.0637
@<TRIPOS>BOND
     1     1    41    1
     2     1    28    1
     3     2    34    2
     4     3    38   ar
     5     4    38   ar
     6     5    41    2
     7     6    48    1
     8     7    50    2
     9     8    53   ar
    10     9    53   ar
    11    10    45    1
    12    10    50   am
    13    11    16    1
    14    11    12    1
    15    11    26    1
    16    11    13    1
    17    12    14    1
    18    13    20    1
    19    13    17    1
    20    13    28    1
    21    14    15    1
    22    14    24    1
    23    14    29    1
    24    15    19    1
    25    15    23    1
    26    16    19    1
    27    17    18    1
    28    17    27    2
    29    18    30    1
    30    18    22    1
    31    20    25    1
    32    21    27    1
    33    21    12    1
    34    22    31    1
    35    22    25    1
    36    22    38    1
    37    23    34    1
    38    23    37    1
    39    23    36    1
    40    24    32    1
    41    30    33    1
    42    31    35    1
    43    32    34    1
    44    33    35    1
    45    33    40    1
    46    33    39    1
    47    41    42    1
    48    42    43    2
    49    43    44    1
    50    44    46   ar
    51    44    45   ar
    52    45    47   ar
    53    46    48   ar
    54    47    49   ar
    55    48    49   ar
    56    50    51    1
    57    51    52    2
    58    52    53    1
    59     6    54    1
    60    10    55    1
    61    12    56    1
    62    15    57    1
    63    16    58    1
    64    16    59    1
    65    18    60    1
    66    19    61    1
    67    19    62    1
    68    20    63    1
    69    20    64    1
    70    21    65    1
    71    21    66    1
    72    24    67    1
    73    24    68    1
    74    25    69    1
    75    25    70    1
    76    26    71    1
    77    26    72    1
    78    26    73    1
    79    27    74    1
    80    28    75    1
    81    28    76    1
    82    29    77    1
    83    29    78    1
    84    29    79    1
    85    30    80    1
    86    30    81    1
    87    31    82    1
    88    31    83    1
    89    32    84    1
    90    32    85    1
    91    35    86    1
    92    35    87    1
    93    36    88    1
    94    36    89    1
    95    36    90    1
    96    37    91    1
    97    37    92    1
    98    37    93    1
    99    39    94    1
   100    39    95    1
   101    39    96    1
   102    40    97    1
   103    40    98    1
   104    40    99    1
   105    42   100    1
   106    43   101    1
   107    46   102    1
   108    47   103    1
   109    49   104    1
   110    51   105    1
   111    52   106    1
@<TRIPOS>MOLECULE
11672244
 106 111 0 0 0
SMALL
GASTEIGER

@<TRIPOS>ATOM
      1 O          -3.7153    0.1383   -6.2781 O.3     1  LIG1       -0.4607
      2 O          -6.1992    6.5416   -7.2754 O.2     1  LIG1       -0.2968
      3 O          -6.4086   -4.4171   -9.8604 O.co2   1  LIG1       -0.5492
      4 O          -7.6460   -5.0354   -8.0619 O.co2   1  LIG1       -0.5492
      5 O          -2.0808   -1.3348   -7.0091 O.2     1  LIG1       -0.2456
      6 O           0.3453    6.2385   -6.6695 O.3     1  LIG1       -0.5067
      7 O           1.2872   -0.3654   -2.8083 O.2     1  LIG1       -0.2705
      8 O           1.0225    3.7076    0.0939 O.co2   1  LIG1       -0.5452
      9 O           0.1882    2.0854    1.4710 O.co2   1  LIG1       -0.5452
     10 N           0.8217    1.2218   -4.3189 N.am    1  LIG1       -0.2815
     11 C          -6.7112   -0.0109   -7.4144 C.3     1  LIG1       -0.0160
     12 C          -5.9119    1.0349   -8.2744 C.3     1  LIG1       -0.0256
     13 C          -5.7322   -1.2685   -7.0269 C.3     1  LIG1        0.0318
     14 C          -6.5613    2.4869   -8.4633 C.3     1  LIG1       -0.0243
     15 C          -7.0076    2.9989   -7.0458 C.3     1  LIG1       -0.0235
     16 C          -7.2694    0.6669   -6.1373 C.3     1  LIG1       -0.0461
     17 C          -5.0077   -1.7914   -8.2876 C.2     1  LIG1       -0.0596
     18 C          -4.3913   -3.2025   -8.1687 C.3     1  LIG1       -0.0080
     19 C          -7.9778    1.9970   -6.3889 C.3     1  LIG1       -0.0483
     20 C          -6.6046   -2.4108   -6.3921 C.3     1  LIG1       -0.0392
     21 C          -5.3955    0.3712   -9.5698 C.3     1  LIG1       -0.0306
     22 C          -5.4039   -4.2598   -7.6728 C.3     1  LIG1        0.0167
     23 C          -7.4658    4.4945   -6.9457 C.3     1  LIG1        0.0267
     24 C          -5.4479    3.4590   -8.9548 C.3     1  LIG1       -0.0404
     25 C          -5.9361   -3.7827   -6.2993 C.3     1  LIG1       -0.0408
     26 C          -7.9363   -0.5387   -8.2324 C.3     1  LIG1       -0.0584
     27 C          -4.8857   -1.0294   -9.3936 C.2     1  LIG1       -0.0835
     28 C          -4.6228   -0.9304   -5.9487 C.3     1  LIG1        0.1025
     29 C          -7.7018    2.5076   -9.5087 C.3     1  LIG1       -0.0590
     30 C          -3.5136   -3.6820   -9.3488 C.3     1  LIG1       -0.0405
     31 C          -4.7086   -5.6275   -7.4560 C.3     1  LIG1       -0.0412
     32 C          -5.8583    4.9254   -8.9737 C.3     1  LIG1        0.0069
     33 C          -2.8128   -5.0358   -9.0865 C.3     1  LIG1       -0.0343
     34 C          -6.4453    5.3955   -7.6633 C.2     1  LIG1        0.1392
     35 C          -3.8465   -6.0853   -8.6339 C.3     1  LIG1       -0.0470
     36 C          -8.8600    4.7907   -7.5165 C.3     1  LIG1       -0.0528
     37 C          -7.4870    4.9236   -5.4538 C.3     1  LIG1       -0.0528
     38 C          -6.6023   -4.5881   -8.6247 C.2     1  LIG1        0.0485
     39 C          -2.1522   -5.5160  -10.3929 C.3     1  LIG1       -0.0598
     40 C          -1.6963   -4.8785   -8.0323 C.3     1  LIG1       -0.0598
     41 C          -2.4918   -0.2183   -6.7378 C.2     1  LIG1        0.3320
     42 C          -1.5904    0.9434   -6.8294 C.2     1  LIG1        0.0231
     43 C          -1.5344    1.8210   -5.8200 C.2     1  LIG1       -0.0460
     44 C          -0.4403    2.7902   -5.6911 C.ar    1  LIG1       -0.0001
     45 C           0.6723    2.5093   -4.8684 C.ar    1  LIG1        0.0411
     46 C          -0.5587    4.0439   -6.3029 C.ar    1  LIG1       -0.0113
     47 C           1.6631    3.4808   -4.6928 C.ar    1  LIG1       -0.0364
     48 C           0.4331    5.0002   -6.1023 C.ar    1  LIG1        0.1175
     49 C           1.5419    4.7272   -5.3102 C.ar    1  LIG1       -0.0184
     50 C           1.1353    0.8333   -3.0433 C.2     1  LIG1        0.2411
     51 C           1.1116    1.8481   -1.9657 C.2     1  LIG1        0.0021
     52 C           0.7831    1.4937   -0.7145 C.2     1  LIG1       -0.0344
     53 C           0.6560    2.5342    0.3878 C.2     1  LIG1        0.0647
     54 H          -0.5580    6.3516   -7.0085 H       1  LIG1        0.2921
     55 H           0.4353    0.4424   -4.8386 H       1  LIG1        0.1551
     56 H          -5.0120    1.2579   -7.6959 H       1  LIG1        0.0315
     57 H          -6.0919    2.9624   -6.4343 H       1  LIG1        0.0315
     58 H          -6.4618    0.8746   -5.4294 H       1  LIG1        0.0271
     59 H          -7.9628   -0.0058   -5.6179 H       1  LIG1        0.0271
     60 H          -3.6694   -3.1020   -7.3517 H       1  LIG1        0.0355
     61 H          -8.8805    1.8461   -6.9885 H       1  LIG1        0.0269
     62 H          -8.3227    2.3631   -5.4181 H       1  LIG1        0.0269
     63 H          -7.5260   -2.5683   -6.9533 H       1  LIG1        0.0275
     64 H          -6.9210   -2.1140   -5.3833 H       1  LIG1        0.0275
     65 H          -6.1719    0.3262  -10.3377 H       1  LIG1        0.0310
     66 H          -4.5773    0.9728   -9.9818 H       1  LIG1        0.0310
     67 H          -5.1176    3.1824   -9.9629 H       1  LIG1        0.0275
     68 H          -4.5685    3.3640   -8.3032 H       1  LIG1        0.0275
     69 H          -6.6543   -4.4980   -5.8788 H       1  LIG1        0.0275
     70 H          -5.1181   -3.7418   -5.5690 H       1  LIG1        0.0275
     71 H          -8.4802    0.2460   -8.7483 H       1  LIG1        0.0235
     72 H          -8.6817   -1.0140   -7.5854 H       1  LIG1        0.0235
     73 H          -7.6494   -1.2693   -8.9950 H       1  LIG1        0.0235
     74 H          -4.3954   -1.4387  -10.2728 H       1  LIG1        0.0572
     75 H          -5.1013   -0.6325   -5.0095 H       1  LIG1        0.0706
     76 H          -4.0445   -1.8173   -5.6681 H       1  LIG1        0.0706
     77 H          -8.6686    2.2195   -9.0938 H       1  LIG1        0.0235
     78 H          -7.4983    1.8619  -10.3648 H       1  LIG1        0.0235
     79 H          -7.8564    3.4947   -9.9474 H       1  LIG1        0.0235
     80 H          -2.7432   -2.9266   -9.5576 H       1  LIG1        0.0276
     81 H          -4.1128   -3.7551  -10.2632 H       1  LIG1        0.0276
     82 H          -5.4487   -6.4103   -7.2426 H       1  LIG1        0.0274
     83 H          -4.0736   -5.5791   -6.5617 H       1  LIG1        0.0274
     84 H          -6.5786    5.1425   -9.7672 H       1  LIG1        0.0342
     85 H          -4.9686    5.5315   -9.1820 H       1  LIG1        0.0342
     86 H          -4.5028   -6.3448   -9.4738 H       1  LIG1        0.0271
     87 H          -3.3356   -7.0159   -8.3544 H       1  LIG1        0.0271
     88 H          -8.9025    4.7121   -8.6033 H       1  LIG1        0.0239
     89 H          -9.1602    5.8208   -7.2864 H       1  LIG1        0.0239
     90 H          -9.6230    4.1306   -7.0920 H       1  LIG1        0.0239
     91 H          -6.5217    4.7312   -4.9718 H       1  LIG1        0.0239
     92 H          -8.2634    4.4035   -4.8848 H       1  LIG1        0.0239
     93 H          -7.6912    5.9957   -5.3444 H       1  LIG1        0.0239
     94 H          -2.8948   -5.6559  -11.1862 H       1  LIG1        0.0235
     95 H          -1.6377   -6.4726  -10.2472 H       1  LIG1        0.0235
     96 H          -1.4138   -4.7903  -10.7522 H       1  LIG1        0.0235
     97 H          -2.0762   -4.5715   -7.0540 H       1  LIG1        0.0235
     98 H          -0.9633   -4.1268   -8.3476 H       1  LIG1        0.0235
     99 H          -1.1584   -5.8224   -7.8870 H       1  LIG1        0.0235
    100 H          -0.8555    0.9092   -7.6237 H       1  LIG1        0.0689
    101 H          -2.2051    1.7596   -4.9651 H       1  LIG1        0.0626
    102 H          -1.4296    4.2667   -6.9112 H       1  LIG1        0.0660
    103 H           2.5518    3.2701   -4.1027 H       1  LIG1        0.0637
    104 H           2.3097    5.4816   -5.1649 H       1  LIG1        0.0655
    105 H           1.2892    2.8895   -2.1941 H       1  LIG1        0.0670
    106 H           0.5535    0.4637   -0.4595 H       1  LIG1        0.0637
@<TRIPOS>BOND
     1     1    41    1
     2     1    28    1
     3     2    34    2
     4     3    38   ar
     5     4    38   ar
     6     5    41    2
     7     6    48    1
     8     7    50    2
     9     8    53   ar
    10     9    53   ar
    11    10    45    1
    12    10    50   am
    13    11    16    1
    14    11    12    1
    15    11    26    1
    16    11    13    1
    17    12    14    1
    18    13    20    1
    19    13    17    1
    20    13    28    1
    21    14    15    1
    22    14    24    1
    23    14    29    1
    24    15    19    1
    25    15    23    1
    26    16    19    1
    27    17    18    1
    28    17    27    2
    29    18    30    1
    30    18    22    1
    31    20    25    1
    32    21    27    1
    33    21    12    1
    34    22    31    1
    35    22    25    1
    36    22    38    1
    37    23    34    1
    38    23    37    1
    39    23    36    1
    40    24    32    1
    41    30    33    1
    42    31    35    1
    43    32    34    1
    44    33    35    1
    45    33    40    1
    46    33    39    1
    47    41    42    1
    48    42    43    2
    49    43    44    1
    50    44    46   ar
    51    44    45   ar
    52    45    47   ar
    53    46    48   ar
    54    47    49   ar
    55    48    49   ar
    56    50    51    1
    57    51    52    2
    58    52    53    1
    59     6    54    1
    60    10    55    1
    61    12    56    1
    62    15    57    1
    63    16    58    1
    64    16    59    1
    65    18    60    1
    66    19    61    1
    67    19    62    1
    68    20    63    1
    69    20    64    1
    70    21    65    1
    71    21    66    1
    72    24    67    1
    73    24    68    1
    74    25    69    1
    75    25    70    1
    76    26    71    1
    77    26    72    1
    78    26    73    1
    79    27    74    1
    80    28    75    1
    81    28    76    1
    82    29    77    1
    83    29    78    1
    84    29    79    1
    85    30    80    1
    86    30    81    1
    87    31    82    1
    88    31    83    1
    89    32    84    1
    90    32    85    1
    91    35    86    1
    92    35    87    1
    93    36    88    1
    94    36    89    1
    95    36    90    1
    96    37    91    1
    97    37    92    1
    98    37    93    1
    99    39    94    1
   100    39    95    1
   101    39    96    1
   102    40    97    1
   103    40    98    1
   104    40    99    1
   105    42   100    1
   106    43   101    1
   107    46   102    1
   108    47   103    1
   109    49   104    1
   110    51   105    1
   111    52   106    1
@<TRIPOS>MOLECULE
11672244
 106 111 0 0 0
SMALL
GASTEIGER

@<TRIPOS>ATOM
      1 O          -3.8114   -1.7638   -5.3963 O.3     1  LIG1       -0.4607
      2 O          -6.2769    6.5348   -7.1600 O.2     1  LIG1       -0.2968
      3 O          -6.4527   -4.0230   -9.8637 O.co2   1  LIG1       -0.5492
      4 O          -7.5337   -5.2170   -8.2646 O.co2   1  LIG1       -0.5492
      5 O          -4.7302   -1.9947   -3.2881 O.2     1  LIG1       -0.2456
      6 O          -1.9963   -8.8174   -5.0275 O.3     1  LIG1       -0.5067
      7 O           0.8342   -2.9447   -0.9472 O.2     1  LIG1       -0.2705
      8 O           5.2262   -3.8778   -3.3993 O.co2   1  LIG1       -0.5452
      9 O           3.5727   -4.3011   -4.9183 O.co2   1  LIG1       -0.5452
     10 N          -0.5490   -4.3373   -2.0512 N.am    1  LIG1       -0.2815
     11 C          -6.7708   -0.0308   -7.3996 C.3     1  LIG1       -0.0160
     12 C          -5.9078    1.0461   -8.1652 C.3     1  LIG1       -0.0256
     13 C          -5.7787   -1.2742   -6.9374 C.3     1  LIG1        0.0318
     14 C          -6.5564    2.4896   -8.3939 C.3     1  LIG1       -0.0243
     15 C          -7.0997    2.9784   -7.0056 C.3     1  LIG1       -0.0235
     16 C          -7.4656    0.6240   -6.1726 C.3     1  LIG1       -0.0461
     17 C          -4.9424   -1.7556   -8.1537 C.2     1  LIG1       -0.0596
     18 C          -4.3536   -3.1819   -8.0808 C.3     1  LIG1       -0.0080
     19 C          -8.1306    1.9720   -6.4519 C.3     1  LIG1       -0.0483
     20 C          -6.6517   -2.4395   -6.3617 C.3     1  LIG1       -0.0392
     21 C          -5.2710    0.4249   -9.4231 C.3     1  LIG1       -0.0306
     22 C          -5.4117   -4.2428   -7.6980 C.3     1  LIG1        0.0167
     23 C          -7.5415    4.4772   -6.9054 C.3     1  LIG1        0.0267
     24 C          -5.4243    3.4724   -8.8149 C.3     1  LIG1       -0.0404
     25 C          -6.0340   -3.8372   -6.3447 C.3     1  LIG1       -0.0408
     26 C          -7.8991   -0.5782   -8.3302 C.3     1  LIG1       -0.0584
     27 C          -4.7474   -0.9625   -9.2271 C.2     1  LIG1       -0.0835
     28 C          -4.7768   -0.7836   -5.8111 C.3     1  LIG1        0.1025
     29 C          -7.6291    2.5049   -9.5097 C.3     1  LIG1       -0.0590
     30 C          -3.4610   -3.6294   -9.2699 C.3     1  LIG1       -0.0405
     31 C          -4.7359   -5.6259   -7.5097 C.3     1  LIG1       -0.0412
     32 C          -5.8447    4.9342   -8.8526 C.3     1  LIG1        0.0069
     33 C          -2.8081   -5.0198   -9.0826 C.3     1  LIG1       -0.0343
     34 C          -6.4942    5.3896   -7.5691 C.2     1  LIG1        0.1392
     35 C          -3.8810   -6.0563   -8.7013 C.3     1  LIG1       -0.0470
     36 C          -8.9116    4.7886   -7.5234 C.3     1  LIG1       -0.0528
     37 C          -7.6092    4.8859   -5.4091 C.3     1  LIG1       -0.0528
     38 C          -6.5787   -4.5091   -8.7060 C.2     1  LIG1        0.0485
     39 C          -2.1526   -5.4466  -10.4108 C.3     1  LIG1       -0.0598
     40 C          -1.6969   -4.9643   -8.0132 C.3     1  LIG1       -0.0598
     41 C          -3.9213   -2.2829   -4.1531 C.2     1  LIG1        0.3320
     42 C          -2.9244   -3.3636   -4.0649 C.2     1  LIG1        0.0231
     43 C          -3.1500   -4.4372   -3.2937 C.2     1  LIG1       -0.0460
     44 C          -2.2058   -5.5603   -3.3412 C.ar    1  LIG1       -0.0001
     45 C          -0.9032   -5.4723   -2.8096 C.ar    1  LIG1        0.0411
     46 C          -2.5830   -6.6924   -4.0803 C.ar    1  LIG1       -0.0113
     47 C          -0.0125   -6.5362   -3.0005 C.ar    1  LIG1       -0.0364
     48 C          -1.6718   -7.7242   -4.2792 C.ar    1  LIG1        0.1175
     49 C          -0.3970   -7.6600   -3.7354 C.ar    1  LIG1       -0.0184
     50 C           0.6701   -3.7411   -1.8699 C.2     1  LIG1        0.2411
     51 C           1.7004   -3.9797   -2.9066 C.2     1  LIG1        0.0021
     52 C           3.0041   -3.7801   -2.6758 C.2     1  LIG1       -0.0344
     53 C           4.0295   -4.0061   -3.7782 C.2     1  LIG1        0.0647
     54 H          -2.7883   -8.5990   -5.5491 H       1  LIG1        0.2921
     55 H          -1.2953   -3.8475   -1.5746 H       1  LIG1        0.1551
     56 H          -5.0615    1.2640   -7.5019 H       1  LIG1        0.0315
     57 H          -6.2310    2.9145   -6.3283 H       1  LIG1        0.0315
     58 H          -6.7469    0.8192   -5.3743 H       1  LIG1        0.0271
     59 H          -8.2088   -0.0595   -5.7445 H       1  LIG1        0.0271
     60 H          -3.6460   -3.1359   -7.2468 H       1  LIG1        0.0355
     61 H          -8.9852    1.8450   -7.1215 H       1  LIG1        0.0269
     62 H          -8.5465    2.3257   -5.5035 H       1  LIG1        0.0269
     63 H          -7.5766   -2.5518   -6.9290 H       1  LIG1        0.0275
     64 H          -6.9711   -2.1868   -5.3425 H       1  LIG1        0.0275
     65 H          -5.9806    0.3786  -10.2533 H       1  LIG1        0.0310
     66 H          -4.4343    1.0489   -9.7562 H       1  LIG1        0.0310
     67 H          -5.0366    3.2059   -9.8053 H       1  LIG1        0.0275
     68 H          -4.5824    3.3795   -8.1158 H       1  LIG1        0.0275
     69 H          -6.8056   -4.5513   -6.0285 H       1  LIG1        0.0275
     70 H          -5.2786   -3.8986   -5.5614 H       1  LIG1        0.0275
     71 H          -8.4177    0.2014   -8.8792 H       1  LIG1        0.0235
     72 H          -8.6856   -1.0854   -7.7611 H       1  LIG1        0.0235
     73 H          -7.5244   -1.2871   -9.0739 H       1  LIG1        0.0235
     74 H          -4.2001   -1.3430  -10.0852 H       1  LIG1        0.0572
     75 H          -4.1769    0.0581   -6.1655 H       1  LIG1        0.0706
     76 H          -5.3187   -0.4297   -4.9325 H       1  LIG1        0.0706
     77 H          -8.6124    2.1816   -9.1672 H       1  LIG1        0.0235
     78 H          -7.3520    1.8847  -10.3643 H       1  LIG1        0.0235
     79 H          -7.7852    3.4985   -9.9329 H       1  LIG1        0.0235
     80 H          -2.6617   -2.8906   -9.4211 H       1  LIG1        0.0276
     81 H          -4.0464   -3.6345  -10.1967 H       1  LIG1        0.0276
     82 H          -5.4797   -6.4089   -7.3140 H       1  LIG1        0.0274
     83 H          -4.1010   -5.6023   -6.6163 H       1  LIG1        0.0274
     84 H          -6.5296    5.1476   -9.6778 H       1  LIG1        0.0342
     85 H          -4.9514    5.5483   -9.0187 H       1  LIG1        0.0342
     86 H          -4.5381   -6.2436   -9.5601 H       1  LIG1        0.0271
     87 H          -3.4066   -7.0183   -8.4680 H       1  LIG1        0.0271
     88 H          -8.9256    4.6718   -8.6074 H       1  LIG1        0.0239
     89 H          -9.1924    5.8324   -7.3340 H       1  LIG1        0.0239
     90 H          -9.7011    4.1603   -7.0994 H       1  LIG1        0.0239
     91 H          -6.6507    4.7087   -4.9073 H       1  LIG1        0.0239
     92 H          -8.3851    4.3405   -4.8645 H       1  LIG1        0.0239
     93 H          -7.8380    5.9521   -5.2918 H       1  LIG1        0.0239
     94 H          -2.8923   -5.5136  -11.2164 H       1  LIG1        0.0235
     95 H          -1.6735   -6.4279  -10.3180 H       1  LIG1        0.0235
     96 H          -1.3860   -4.7281  -10.7225 H       1  LIG1        0.0235
     97 H          -2.0715   -4.6759   -7.0277 H       1  LIG1        0.0235
     98 H          -0.9218   -4.2407   -8.2911 H       1  LIG1        0.0235
     99 H          -1.2111   -5.9405   -7.9016 H       1  LIG1        0.0235
    100 H          -2.0593   -3.2842   -4.7152 H       1  LIG1        0.0689
    101 H          -4.0474   -4.5484   -2.6932 H       1  LIG1        0.0626
    102 H          -3.5745   -6.7431   -4.5224 H       1  LIG1        0.0660
    103 H           0.9860   -6.5195   -2.5705 H       1  LIG1        0.0637
    104 H           0.3084   -8.4705   -3.8943 H       1  LIG1        0.0655
    105 H           1.3588   -4.2794   -3.8931 H       1  LIG1        0.0670
    106 H           3.3638   -3.4575   -1.7060 H       1  LIG1        0.0637
@<TRIPOS>BOND
     1     1    41    1
     2     1    28    1
     3     2    34    2
     4     3    38   ar
     5     4    38   ar
     6     5    41    2
     7     6    48    1
     8     7    50    2
     9     8    53   ar
    10     9    53   ar
    11    10    45    1
    12    10    50   am
    13    11    16    1
    14    11    12    1
    15    11    26    1
    16    11    13    1
    17    12    14    1
    18    13    20    1
    19    13    17    1
    20    13    28    1
    21    14    15    1
    22    14    24    1
    23    14    29    1
    24    15    19    1
    25    15    23    1
    26    16    19    1
    27    17    18    1
    28    17    27    2
    29    18    30    1
    30    18    22    1
    31    20    25    1
    32    21    27    1
    33    21    12    1
    34    22    31    1
    35    22    25    1
    36    22    38    1
    37    23    34    1
    38    23    37    1
    39    23    36    1
    40    24    32    1
    41    30    33    1
    42    31    35    1
    43    32    34    1
    44    33    35    1
    45    33    40    1
    46    33    39    1
    47    41    42    1
    48    42    43    2
    49    43    44    1
    50    44    46   ar
    51    44    45   ar
    52    45    47   ar
    53    46    48   ar
    54    47    49   ar
    55    48    49   ar
    56    50    51    1
    57    51    52    2
    58    52    53    1
    59     6    54    1
    60    10    55    1
    61    12    56    1
    62    15    57    1
    63    16    58    1
    64    16    59    1
    65    18    60    1
    66    19    61    1
    67    19    62    1
    68    20    63    1
    69    20    64    1
    70    21    65    1
    71    21    66    1
    72    24    67    1
    73    24    68    1
    74    25    69    1
    75    25    70    1
    76    26    71    1
    77    26    72    1
    78    26    73    1
    79    27    74    1
    80    28    75    1
    81    28    76    1
    82    29    77    1
    83    29    78    1
    84    29    79    1
    85    30    80    1
    86    30    81    1
    87    31    82    1
    88    31    83    1
    89    32    84    1
    90    32    85    1
    91    35    86    1
    92    35    87    1
    93    36    88    1
    94    36    89    1
    95    36    90    1
    96    37    91    1
    97    37    92    1
    98    37    93    1
    99    39    94    1
   100    39    95    1
   101    39    96    1
   102    40    97    1
   103    40    98    1
   104    40    99    1
   105    42   100    1
   106    43   101    1
   107    46   102    1
   108    47   103    1
   109    49   104    1
   110    51   105    1
   111    52   106    1
@<TRIPOS>MOLECULE
11672244
 106 111 0 0 0
SMALL
GASTEIGER

@<TRIPOS>ATOM
      1 O          -4.9706   -0.1460   -4.7273 O.3     1  LIG1       -0.4607
      2 O          -6.3211    6.5852   -7.2011 O.2     1  LIG1       -0.2968
      3 O          -6.4445   -4.1371   -9.6733 O.co2   1  LIG1       -0.5492
      4 O          -7.5044   -5.0703   -7.8967 O.co2   1  LIG1       -0.5492
      5 O          -3.8897   -1.7485   -3.4689 O.2     1  LIG1       -0.2456
      6 O          -8.3085    2.2965    0.9907 O.3     1  LIG1       -0.5067
      7 O          -3.0503   -1.5365    0.9546 O.2     1  LIG1       -0.2705
      8 O           1.6222   -0.2079    2.2845 O.co2   1  LIG1       -0.5452
      9 O           1.5930   -2.4024    2.9227 O.co2   1  LIG1       -0.5452
     10 N          -2.9458    0.7918    1.0402 N.am    1  LIG1       -0.2815
     11 C          -6.7195    0.0236   -7.3995 C.3     1  LIG1       -0.0160
     12 C          -5.8903    1.0981   -8.1980 C.3     1  LIG1       -0.0256
     13 C          -5.6911   -1.1771   -6.9444 C.3     1  LIG1        0.0318
     14 C          -6.5559    2.5333   -8.4259 C.3     1  LIG1       -0.0243
     15 C          -7.1057    3.0192   -7.0395 C.3     1  LIG1       -0.0235
     16 C          -7.4417    0.6739   -6.1896 C.3     1  LIG1       -0.0461
     17 C          -4.9207   -1.7024   -8.1901 C.2     1  LIG1       -0.0596
     18 C          -4.2982   -3.1102   -8.0714 C.3     1  LIG1       -0.0080
     19 C          -8.1292    2.0054   -6.4891 C.3     1  LIG1       -0.0483
     20 C          -6.5099   -2.3116   -6.2509 C.3     1  LIG1       -0.0392
     21 C          -5.2830    0.4631   -9.4689 C.3     1  LIG1       -0.0306
     22 C          -5.3079   -4.1553   -7.5446 C.3     1  LIG1        0.0167
     23 C          -7.5599    4.5135   -6.9363 C.3     1  LIG1        0.0267
     24 C          -5.4330    3.5266   -8.8453 C.3     1  LIG1       -0.0404
     25 C          -5.8092   -3.6676   -6.1636 C.3     1  LIG1       -0.0408
     26 C          -7.8467   -0.5731   -8.3097 C.3     1  LIG1       -0.0584
     27 C          -4.7616   -0.9301   -9.2844 C.2     1  LIG1       -0.0835
     28 C          -4.5337   -0.7313   -5.9638 C.3     1  LIG1        0.1025
     29 C          -7.6263    2.5361   -9.5438 C.3     1  LIG1       -0.0590
     30 C          -3.4736   -3.6104   -9.2855 C.3     1  LIG1       -0.0405
     31 C          -4.6186   -5.5284   -7.3435 C.3     1  LIG1       -0.0412
     32 C          -5.8697    4.9832   -8.8868 C.3     1  LIG1        0.0069
     33 C          -2.7995   -4.9851   -9.0658 C.3     1  LIG1       -0.0343
     34 C          -6.5245    5.4356   -7.6046 C.2     1  LIG1        0.1392
     35 C          -3.8385   -6.0074   -8.5689 C.3     1  LIG1       -0.0470
     36 C          -8.9371    4.8141   -7.5442 C.3     1  LIG1       -0.0528
     37 C          -7.6225    4.9187   -5.4383 C.3     1  LIG1       -0.0528
     38 C          -6.5382   -4.4747   -8.4597 C.2     1  LIG1        0.0485
     39 C          -2.2168   -5.4750  -10.4059 C.3     1  LIG1       -0.0598
     40 C          -1.6301   -4.8670   -8.0663 C.3     1  LIG1       -0.0598
     41 C          -4.5398   -0.7249   -3.5791 C.2     1  LIG1        0.3320
     42 C          -4.9748    0.1346   -2.4579 C.2     1  LIG1        0.0231
     43 C          -4.7806   -0.2440   -1.1835 C.2     1  LIG1       -0.0460
     44 C          -5.2015    0.5939   -0.0464 C.ar    1  LIG1       -0.0001
     45 C          -4.3194    1.1063    0.9296 C.ar    1  LIG1        0.0411
     46 C          -6.5563    0.9857   -0.0046 C.ar    1  LIG1       -0.0113
     47 C          -4.7896    2.0595    1.8516 C.ar    1  LIG1       -0.0364
     48 C          -7.0045    1.8987    0.9464 C.ar    1  LIG1        0.1175
     49 C          -6.1286    2.4475    1.8671 C.ar    1  LIG1       -0.0184
     50 C          -2.4237   -0.4915    1.0589 C.2     1  LIG1        0.2411
     51 C          -0.9759   -0.4518    1.3991 C.2     1  LIG1        0.0021
     52 C          -0.3480   -1.4857    1.9775 C.2     1  LIG1       -0.0344
     53 C           1.1024   -1.3512    2.4233 C.2     1  LIG1        0.0647
     54 H          -8.8004    1.7931    0.3207 H       1  LIG1        0.2921
     55 H          -2.3754    1.4610    1.5420 H       1  LIG1        0.1551
     56 H          -5.0317    1.3281   -7.5538 H       1  LIG1        0.0315
     57 H          -6.2373    2.9618   -6.3612 H       1  LIG1        0.0315
     58 H          -6.7441    0.8918   -5.3849 H       1  LIG1        0.0271
     59 H          -8.1786   -0.0180   -5.7636 H       1  LIG1        0.0271
     60 H          -3.5400   -2.9941   -7.2853 H       1  LIG1        0.0355
     61 H          -8.9735    1.8591   -7.1678 H       1  LIG1        0.0269
     62 H          -8.5634    2.3602   -5.5495 H       1  LIG1        0.0269
     63 H          -7.4517   -2.4944   -6.7712 H       1  LIG1        0.0275
     64 H          -6.7960   -2.0007   -5.2388 H       1  LIG1        0.0275
     65 H          -6.0130    0.4145  -10.2811 H       1  LIG1        0.0310
     66 H          -4.4531    1.0834   -9.8251 H       1  LIG1        0.0310
     67 H          -5.0378    3.2610   -9.8329 H       1  LIG1        0.0275
     68 H          -4.5930    3.4450   -8.1424 H       1  LIG1        0.0275
     69 H          -6.5001   -4.3922   -5.7140 H       1  LIG1        0.0275
     70 H          -4.9686   -3.5964   -5.4620 H       1  LIG1        0.0275
     71 H          -8.4057    0.1890   -8.8456 H       1  LIG1        0.0235
     72 H          -8.5991   -1.1146   -7.7265 H       1  LIG1        0.0235
     73 H          -7.4661   -1.2680   -9.0630 H       1  LIG1        0.0235
     74 H          -4.2431   -1.3255  -10.1533 H       1  LIG1        0.0572
     75 H          -3.8601   -1.5697   -5.7620 H       1  LIG1        0.0706
     76 H          -3.8955    0.0205   -6.4403 H       1  LIG1        0.0706
     77 H          -8.5926    2.1503   -9.2201 H       1  LIG1        0.0235
     78 H          -7.3150    1.9658  -10.4212 H       1  LIG1        0.0235
     79 H          -7.8299    3.5361   -9.9296 H       1  LIG1        0.0235
     80 H          -2.6903   -2.8755   -9.5178 H       1  LIG1        0.0276
     81 H          -4.1088   -3.6610  -10.1772 H       1  LIG1        0.0276
     82 H          -5.3516   -6.3009   -7.0763 H       1  LIG1        0.0274
     83 H          -3.9327   -5.4744   -6.4885 H       1  LIG1        0.0274
     84 H          -6.5562    5.1862   -9.7133 H       1  LIG1        0.0342
     85 H          -4.9828    5.6064   -9.0535 H       1  LIG1        0.0342
     86 H          -4.5472   -6.2367   -9.3749 H       1  LIG1        0.0271
     87 H          -3.3439   -6.9564   -8.3248 H       1  LIG1        0.0271
     88 H          -8.9583    4.7000   -8.6282 H       1  LIG1        0.0239
     89 H          -9.2255    5.8550   -7.3504 H       1  LIG1        0.0239
     90 H          -9.7185    4.1783   -7.1164 H       1  LIG1        0.0239
     91 H          -6.6596    4.7488   -4.9422 H       1  LIG1        0.0239
     92 H          -8.3901    4.3650   -4.8901 H       1  LIG1        0.0239
     93 H          -7.8602    5.9825   -5.3173 H       1  LIG1        0.0239
     94 H          -2.9999   -5.5850  -11.1643 H       1  LIG1        0.0235
     95 H          -1.7261   -6.4483  -10.2918 H       1  LIG1        0.0235
     96 H          -1.4738   -4.7697  -10.7953 H       1  LIG1        0.0235
     97 H          -1.9511   -4.5288   -7.0772 H       1  LIG1        0.0235
     98 H          -0.8782   -4.1548   -8.4253 H       1  LIG1        0.0235
     99 H          -1.1306   -5.8334   -7.9321 H       1  LIG1        0.0235
    100 H          -5.4371    1.0775   -2.7203 H       1  LIG1        0.0689
    101 H          -4.3078   -1.1949   -0.9556 H       1  LIG1        0.0626
    102 H          -7.2498    0.5824   -0.7379 H       1  LIG1        0.0660
    103 H          -4.1202    2.4782    2.5994 H       1  LIG1        0.0637
    104 H          -6.4832    3.1628    2.6026 H       1  LIG1        0.0655
    105 H          -0.4368    0.4701    1.2066 H       1  LIG1        0.0670
    106 H          -0.8610   -2.4200    2.1788 H       1  LIG1        0.0637
@<TRIPOS>BOND
     1     1    41    1
     2     1    28    1
     3     2    34    2
     4     3    38   ar
     5     4    38   ar
     6     5    41    2
     7     6    48    1
     8     7    50    2
     9     8    53   ar
    10     9    53   ar
    11    10    45    1
    12    10    50   am
    13    11    16    1
    14    11    12    1
    15    11    26    1
    16    11    13    1
    17    12    14    1
    18    13    20    1
    19    13    17    1
    20    13    28    1
    21    14    15    1
    22    14    24    1
    23    14    29    1
    24    15    19    1
    25    15    23    1
    26    16    19    1
    27    17    18    1
    28    17    27    2
    29    18    30    1
    30    18    22    1
    31    20    25    1
    32    21    27    1
    33    21    12    1
    34    22    31    1
    35    22    25    1
    36    22    38    1
    37    23    34    1
    38    23    37    1
    39    23    36    1
    40    24    32    1
    41    30    33    1
    42    31    35    1
    43    32    34    1
    44    33    35    1
    45    33    40    1
    46    33    39    1
    47    41    42    1
    48    42    43    2
    49    43    44    1
    50    44    46   ar
    51    44    45   ar
    52    45    47   ar
    53    46    48   ar
    54    47    49   ar
    55    48    49   ar
    56    50    51    1
    57    51    52    2
    58    52    53    1
    59     6    54    1
    60    10    55    1
    61    12    56    1
    62    15    57    1
    63    16    58    1
    64    16    59    1
    65    18    60    1
    66    19    61    1
    67    19    62    1
    68    20    63    1
    69    20    64    1
    70    21    65    1
    71    21    66    1
    72    24    67    1
    73    24    68    1
    74    25    69    1
    75    25    70    1
    76    26    71    1
    77    26    72    1
    78    26    73    1
    79    27    74    1
    80    28    75    1
    81    28    76    1
    82    29    77    1
    83    29    78    1
    84    29    79    1
    85    30    80    1
    86    30    81    1
    87    31    82    1
    88    31    83    1
    89    32    84    1
    90    32    85    1
    91    35    86    1
    92    35    87    1
    93    36    88    1
    94    36    89    1
    95    36    90    1
    96    37    91    1
    97    37    92    1
    98    37    93    1
    99    39    94    1
   100    39    95    1
   101    39    96    1
   102    40    97    1
   103    40    98    1
   104    40    99    1
   105    42   100    1
   106    43   101    1
   107    46   102    1
   108    47   103    1
   109    49   104    1
   110    51   105    1
   111    52   106    1
@<TRIPOS>MOLECULE
11672244
 106 111 0 0 0
SMALL
GASTEIGER

@<TRIPOS>ATOM
      1 O          -5.1782   -0.2929   -4.6489 O.3     1  LIG1       -0.4607
      2 O          -6.3377    6.5999   -7.2384 O.2     1  LIG1       -0.2968
      3 O          -6.4091   -4.1326   -9.6985 O.co2   1  LIG1       -0.5492
      4 O          -7.4859   -5.1038   -7.9523 O.co2   1  LIG1       -0.5492
      5 O          -3.8425   -1.7137   -3.4186 O.2     1  LIG1       -0.2456
      6 O         -10.0832   -0.2178    0.2071 O.3     1  LIG1       -0.5067
      7 O          -3.5484   -1.4780    0.8538 O.2     1  LIG1       -0.2705
      8 O          -0.5406    1.2416    3.8343 O.co2   1  LIG1       -0.5452
      9 O           0.3144   -0.8535    4.1565 O.co2   1  LIG1       -0.5452
     10 N          -4.7041    0.4370    1.5294 N.am    1  LIG1       -0.2815
     11 C          -6.7517    0.0320   -7.4199 C.3     1  LIG1       -0.0160
     12 C          -5.9074    1.1029   -8.2100 C.3     1  LIG1       -0.0256
     13 C          -5.7370   -1.1775   -6.9481 C.3     1  LIG1        0.0318
     14 C          -6.5649    2.5413   -8.4490 C.3     1  LIG1       -0.0243
     15 C          -7.1286    3.0317   -7.0703 C.3     1  LIG1       -0.0235
     16 C          -7.4784    0.6941   -6.2192 C.3     1  LIG1       -0.0461
     17 C          -4.9263   -1.6907   -8.1732 C.2     1  LIG1       -0.0596
     18 C          -4.2989   -3.0979   -8.0470 C.3     1  LIG1       -0.0080
     19 C          -8.1637    2.0228   -6.5326 C.3     1  LIG1       -0.0483
     20 C          -6.5793   -2.3263   -6.3038 C.3     1  LIG1       -0.0392
     21 C          -5.2874    0.4645   -9.4710 C.3     1  LIG1       -0.0306
     22 C          -5.3139   -4.1525   -7.5477 C.3     1  LIG1        0.0167
     23 C          -7.5746    4.5280   -6.9693 C.3     1  LIG1        0.0267
     24 C          -5.4344    3.5302   -8.8572 C.3     1  LIG1       -0.0404
     25 C          -5.8594   -3.6695   -6.1827 C.3     1  LIG1       -0.0408
     26 C          -7.8701   -0.5604   -8.3411 C.3     1  LIG1       -0.0584
     27 C          -4.7534   -0.9203   -9.2667 C.2     1  LIG1       -0.0835
     28 C          -4.6337   -0.7358   -5.9036 C.3     1  LIG1        0.1025
     29 C          -7.6219    2.5463   -9.5794 C.3     1  LIG1       -0.0590
     30 C          -3.4511   -3.5907   -9.2493 C.3     1  LIG1       -0.0405
     31 C          -4.6169   -5.5185   -7.3307 C.3     1  LIG1       -0.0412
     32 C          -5.8676    4.9875   -8.9083 C.3     1  LIG1        0.0069
     33 C          -2.7791   -4.9670   -9.0299 C.3     1  LIG1       -0.0343
     34 C          -6.5348    5.4467   -7.6351 C.2     1  LIG1        0.1392
     35 C          -3.8194   -5.9942   -8.5461 C.3     1  LIG1       -0.0470
     36 C          -8.9496    4.8332   -7.5791 C.3     1  LIG1       -0.0528
     37 C          -7.6364    4.9333   -5.4711 C.3     1  LIG1       -0.0528
     38 C          -6.5200   -4.4852   -8.4909 C.2     1  LIG1        0.0485
     39 C          -2.1848   -5.4509  -10.3674 C.3     1  LIG1       -0.0598
     40 C          -1.6190   -4.8521   -8.0197 C.3     1  LIG1       -0.0598
     41 C          -4.7113   -0.8656   -3.5139 C.2     1  LIG1        0.3320
     42 C          -5.5019   -0.3031   -2.3991 C.2     1  LIG1        0.0231
     43 C          -5.5024   -0.8853   -1.1897 C.2     1  LIG1       -0.0460
     44 C          -6.4084   -0.4321   -0.1228 C.ar    1  LIG1       -0.0001
     45 C          -6.0222    0.2094    1.0715 C.ar    1  LIG1        0.0411
     46 C          -7.7870   -0.5860   -0.3978 C.ar    1  LIG1       -0.0113
     47 C          -7.0243    0.7357    1.9131 C.ar    1  LIG1       -0.0364
     48 C          -8.7519   -0.0841    0.4691 C.ar    1  LIG1        0.1175
     49 C          -8.3798    0.5840    1.6205 C.ar    1  LIG1       -0.0184
     50 C          -3.6005   -0.3837    1.3924 C.2     1  LIG1        0.2411
     51 C          -2.4567    0.1780    2.1615 C.2     1  LIG1        0.0021
     52 C          -1.5515   -0.6103    2.7586 C.2     1  LIG1       -0.0344
     53 C          -0.4806   -0.0088    3.6587 C.2     1  LIG1        0.0647
     54 H         -10.1800   -0.7397   -0.6076 H       1  LIG1        0.2921
     55 H          -4.6118    1.1123    2.2779 H       1  LIG1        0.1551
     56 H          -5.0550    1.3303   -7.5570 H       1  LIG1        0.0315
     57 H          -6.2678    2.9700   -6.3829 H       1  LIG1        0.0315
     58 H          -6.7780    0.9284   -5.4210 H       1  LIG1        0.0271
     59 H          -8.2133    0.0056   -5.7849 H       1  LIG1        0.0271
     60 H          -3.5568   -2.9820   -7.2454 H       1  LIG1        0.0355
     61 H          -8.9984    1.8751   -7.2227 H       1  LIG1        0.0269
     62 H          -8.6102    2.3814   -5.6002 H       1  LIG1        0.0269
     63 H          -7.4866   -2.5218   -6.8780 H       1  LIG1        0.0275
     64 H          -6.9296   -2.0269   -5.3089 H       1  LIG1        0.0275
     65 H          -6.0122    0.4019  -10.2872 H       1  LIG1        0.0310
     66 H          -4.4608    1.0888   -9.8277 H       1  LIG1        0.0310
     67 H          -5.0283    3.2615   -9.8396 H       1  LIG1        0.0275
     68 H          -4.6030    3.4483   -8.1443 H       1  LIG1        0.0275
     69 H          -6.5517   -4.4026   -5.7494 H       1  LIG1        0.0275
     70 H          -5.0403   -3.5813   -5.4578 H       1  LIG1        0.0275
     71 H          -8.4114    0.2002   -8.8962 H       1  LIG1        0.0235
     72 H          -8.6374   -1.0860   -7.7625 H       1  LIG1        0.0235
     73 H          -7.4831   -1.2684   -9.0794 H       1  LIG1        0.0235
     74 H          -4.2134   -1.3127  -10.1237 H       1  LIG1        0.0572
     75 H          -3.9199   -1.5472   -5.7334 H       1  LIG1        0.0706
     76 H          -4.0338    0.0925   -6.2928 H       1  LIG1        0.0706
     77 H          -8.5903    2.1543   -9.2702 H       1  LIG1        0.0235
     78 H          -7.2958    1.9827  -10.4559 H       1  LIG1        0.0235
     79 H          -7.8267    3.5478   -9.9603 H       1  LIG1        0.0235
     80 H          -2.6649   -2.8534   -9.4633 H       1  LIG1        0.0276
     81 H          -4.0706   -3.6359  -10.1524 H       1  LIG1        0.0276
     82 H          -5.3469   -6.2961   -7.0700 H       1  LIG1        0.0274
     83 H          -3.9425   -5.4552   -6.4673 H       1  LIG1        0.0274
     84 H          -6.5450    5.1891   -9.7426 H       1  LIG1        0.0342
     85 H          -4.9776    5.6082   -9.0680 H       1  LIG1        0.0342
     86 H          -4.5167   -6.2271   -9.3609 H       1  LIG1        0.0271
     87 H          -3.3239   -6.9412   -8.2960 H       1  LIG1        0.0271
     88 H          -8.9723    4.7066   -8.6616 H       1  LIG1        0.0239
     89 H          -9.2299    5.8781   -7.3955 H       1  LIG1        0.0239
     90 H          -9.7355    4.2078   -7.1439 H       1  LIG1        0.0239
     91 H          -6.6725    4.7651   -4.9762 H       1  LIG1        0.0239
     92 H          -8.4018    4.3779   -4.9216 H       1  LIG1        0.0239
     93 H          -7.8755    5.9967   -5.3498 H       1  LIG1        0.0239
     94 H          -2.9616   -5.5573  -11.1329 H       1  LIG1        0.0235
     95 H          -1.6956   -6.4250  -10.2537 H       1  LIG1        0.0235
     96 H          -1.4385   -4.7441  -10.7475 H       1  LIG1        0.0235
     97 H          -1.9494   -4.5142   -7.0337 H       1  LIG1        0.0235
     98 H          -0.8623   -4.1412   -8.3710 H       1  LIG1        0.0235
     99 H          -1.1226   -5.8197   -7.8822 H       1  LIG1        0.0235
    100 H          -6.1224    0.5553   -2.6261 H       1  LIG1        0.0689
    101 H          -4.8986   -1.7661   -0.9884 H       1  LIG1        0.0626
    102 H          -8.0929   -1.0905   -1.3118 H       1  LIG1        0.0660
    103 H          -6.7555    1.2437    2.8369 H       1  LIG1        0.0637
    104 H          -9.1342    0.9763    2.2951 H       1  LIG1        0.0655
    105 H          -2.4068    1.2553    2.2809 H       1  LIG1        0.0670
    106 H          -1.5870   -1.6899    2.6573 H       1  LIG1        0.0637
@<TRIPOS>BOND
     1     1    41    1
     2     1    28    1
     3     2    34    2
     4     3    38   ar
     5     4    38   ar
     6     5    41    2
     7     6    48    1
     8     7    50    2
     9     8    53   ar
    10     9    53   ar
    11    10    45    1
    12    10    50   am
    13    11    16    1
    14    11    12    1
    15    11    26    1
    16    11    13    1
    17    12    14    1
    18    13    20    1
    19    13    17    1
    20    13    28    1
    21    14    15    1
    22    14    24    1
    23    14    29    1
    24    15    19    1
    25    15    23    1
    26    16    19    1
    27    17    18    1
    28    17    27    2
    29    18    30    1
    30    18    22    1
    31    20    25    1
    32    21    27    1
    33    21    12    1
    34    22    31    1
    35    22    25    1
    36    22    38    1
    37    23    34    1
    38    23    37    1
    39    23    36    1
    40    24    32    1
    41    30    33    1
    42    31    35    1
    43    32    34    1
    44    33    35    1
    45    33    40    1
    46    33    39    1
    47    41    42    1
    48    42    43    2
    49    43    44    1
    50    44    46   ar
    51    44    45   ar
    52    45    47   ar
    53    46    48   ar
    54    47    49   ar
    55    48    49   ar
    56    50    51    1
    57    51    52    2
    58    52    53    1
    59     6    54    1
    60    10    55    1
    61    12    56    1
    62    15    57    1
    63    16    58    1
    64    16    59    1
    65    18    60    1
    66    19    61    1
    67    19    62    1
    68    20    63    1
    69    20    64    1
    70    21    65    1
    71    21    66    1
    72    24    67    1
    73    24    68    1
    74    25    69    1
    75    25    70    1
    76    26    71    1
    77    26    72    1
    78    26    73    1
    79    27    74    1
    80    28    75    1
    81    28    76    1
    82    29    77    1
    83    29    78    1
    84    29    79    1
    85    30    80    1
    86    30    81    1
    87    31    82    1
    88    31    83    1
    89    32    84    1
    90    32    85    1
    91    35    86    1
    92    35    87    1
    93    36    88    1
    94    36    89    1
    95    36    90    1
    96    37    91    1
    97    37    92    1
    98    37    93    1
    99    39    94    1
   100    39    95    1
   101    39    96    1
   102    40    97    1
   103    40    98    1
   104    40    99    1
   105    42   100    1
   106    43   101    1
   107    46   102    1
   108    47   103    1
   109    49   104    1
   110    51   105    1
   111    52   106    1
@<TRIPOS>MOLECULE
11672244
 106 111 0 0 0
SMALL
GASTEIGER

@<TRIPOS>ATOM
      1 O          -3.7750    0.2344   -6.2130 O.3     1  LIG1       -0.4607
      2 O          -6.1823    6.5658   -7.2437 O.2     1  LIG1       -0.2968
      3 O          -7.5362   -5.1441   -7.9401 O.co2   1  LIG1       -0.5492
      4 O          -6.4292   -4.3099   -9.7382 O.co2   1  LIG1       -0.5492
      5 O          -2.0153   -1.2225   -6.5636 O.2     1  LIG1       -0.2456
      6 O           3.7170    2.6296   -6.5352 O.3     1  LIG1       -0.5067
      7 O          -2.2460    4.2513  -11.1004 O.2     1  LIG1       -0.2705
      8 O           1.5076    6.2129  -14.0798 O.co2   1  LIG1       -0.5452
      9 O           2.3421    4.2851  -13.1823 O.co2   1  LIG1       -0.5452
     10 N          -0.9331    3.2497   -9.5601 N.am    1  LIG1       -0.2815
     11 C          -6.7108    0.0296   -7.3952 C.3     1  LIG1       -0.0160
     12 C          -5.9038    1.0736   -8.2542 C.3     1  LIG1       -0.0256
     13 C          -5.7299   -1.2179   -6.9775 C.3     1  LIG1        0.0318
     14 C          -6.5501    2.5227   -8.4622 C.3     1  LIG1       -0.0243
     15 C          -7.0190    3.0397   -7.0539 C.3     1  LIG1       -0.0235
     16 C          -7.2931    0.7151   -6.1333 C.3     1  LIG1       -0.0461
     17 C          -4.9677   -1.7416   -8.2178 C.2     1  LIG1       -0.0596
     18 C          -4.3438   -3.1499   -8.0894 C.3     1  LIG1       -0.0080
     19 C          -7.9986    2.0413   -6.4072 C.3     1  LIG1       -0.0483
     20 C          -6.5995   -2.3680   -6.3542 C.3     1  LIG1       -0.0392
     21 C          -5.3634    0.4030   -9.5343 C.3     1  LIG1       -0.0306
     22 C          -5.3503   -4.2115   -7.5829 C.3     1  LIG1        0.0167
     23 C          -7.4746    4.5338   -6.9659 C.3     1  LIG1        0.0267
     24 C          -5.4296    3.4943   -8.9446 C.3     1  LIG1       -0.0404
     25 C          -5.9016   -3.7235   -6.2229 C.3     1  LIG1       -0.0408
     26 C          -7.9194   -0.5131   -8.2256 C.3     1  LIG1       -0.0584
     27 C          -4.8348   -0.9867   -9.3278 C.2     1  LIG1       -0.0835
     28 C          -4.6571   -0.8518   -5.8731 C.3     1  LIG1        0.1025
     29 C          -7.6746    2.5331   -9.5241 C.3     1  LIG1       -0.0590
     30 C          -3.4856   -3.6393   -9.2824 C.3     1  LIG1       -0.0405
     31 C          -4.6399   -5.5700   -7.3552 C.3     1  LIG1       -0.0412
     32 C          -5.8340    4.9637   -8.9662 C.3     1  LIG1        0.0069
     33 C          -2.7894   -4.9991   -9.0380 C.3     1  LIG1       -0.0343
     34 C          -6.4338    5.4305   -7.6597 C.2     1  LIG1        0.1392
     35 C          -3.8173   -6.0405   -8.5566 C.3     1  LIG1       -0.0470
     36 C          -8.8547    4.8320   -7.5684 C.3     1  LIG1       -0.0528
     37 C          -7.5290    4.9639   -5.4743 C.3     1  LIG1       -0.0528
     38 C          -6.5565   -4.5775   -8.5122 C.2     1  LIG1        0.0485
     39 C          -2.1673   -5.4856  -10.3615 C.3     1  LIG1       -0.0598
     40 C          -1.6455   -4.8504   -8.0133 C.3     1  LIG1       -0.0598
     41 C          -2.5155   -0.1082   -6.5743 C.2     1  LIG1        0.3320
     42 C          -1.7612    1.1171   -6.9120 C.2     1  LIG1        0.0231
     43 C          -0.6717    0.9828   -7.6824 C.2     1  LIG1       -0.0460
     44 C           0.3340    2.0374   -7.8633 C.ar    1  LIG1       -0.0001
     45 C           0.2343    3.1011   -8.7801 C.ar    1  LIG1        0.0411
     46 C           1.5112    1.8786   -7.1074 C.ar    1  LIG1       -0.0113
     47 C           1.2934    4.0203   -8.8627 C.ar    1  LIG1       -0.0364
     48 C           2.5596    2.7812   -7.2398 C.ar    1  LIG1        0.1175
     49 C           2.4528    3.8593   -8.1002 C.ar    1  LIG1       -0.0184
     50 C          -1.1179    3.9131  -10.7496 C.2     1  LIG1        0.2411
     51 C           0.0681    4.0666  -11.6257 C.2     1  LIG1        0.0021
     52 C           0.2089    5.0723  -12.4980 C.2     1  LIG1       -0.0344
     53 C           1.4748    5.1902  -13.3405 C.2     1  LIG1        0.0647
     54 H           3.7182    1.7385   -6.1493 H       1  LIG1        0.2921
     55 H          -1.7868    2.8408   -9.2065 H       1  LIG1        0.1551
     56 H          -5.0135    1.3065   -7.6671 H       1  LIG1        0.0315
     57 H          -6.1104    3.0044   -6.4285 H       1  LIG1        0.0315
     58 H          -6.4992    0.9334   -5.4133 H       1  LIG1        0.0271
     59 H          -7.9920    0.0442   -5.6194 H       1  LIG1        0.0271
     60 H          -3.6105   -3.0335   -7.2824 H       1  LIG1        0.0355
     61 H          -8.8907    1.8852   -7.0198 H       1  LIG1        0.0269
     62 H          -8.3595    2.4129   -5.4439 H       1  LIG1        0.0269
     63 H          -7.4986   -2.5519   -6.9448 H       1  LIG1        0.0275
     64 H          -6.9546   -2.0659   -5.3609 H       1  LIG1        0.0275
     65 H          -6.1308    0.3348  -10.3097 H       1  LIG1        0.0310
     66 H          -4.5492    1.0102   -9.9460 H       1  LIG1        0.0310
     67 H          -5.0915    3.2167   -9.9500 H       1  LIG1        0.0275
     68 H          -4.5555    3.3965   -8.2864 H       1  LIG1        0.0275
     69 H          -6.6093   -4.4442   -5.7939 H       1  LIG1        0.0275
     70 H          -5.0907   -3.6544   -5.4876 H       1  LIG1        0.0275
     71 H          -8.4658    0.2664   -8.7479 H       1  LIG1        0.0235
     72 H          -8.6659   -0.9964   -7.5857 H       1  LIG1        0.0235
     73 H          -7.6151   -1.2414   -8.9835 H       1  LIG1        0.0235
     74 H          -4.3257   -1.3929  -10.1981 H       1  LIG1        0.0572
     75 H          -5.1591   -0.5559   -4.9460 H       1  LIG1        0.0706
     76 H          -4.0717   -1.7283   -5.5767 H       1  LIG1        0.0706
     77 H          -8.6471    2.2475   -9.1209 H       1  LIG1        0.0235
     78 H          -7.4582    1.8784  -10.3702 H       1  LIG1        0.0235
     79 H          -7.8210    3.5165   -9.9741 H       1  LIG1        0.0235
     80 H          -2.7129   -2.8898   -9.5039 H       1  LIG1        0.0276
     81 H          -4.1022   -3.7088  -10.1858 H       1  LIG1        0.0276
     82 H          -5.3645   -6.3558   -7.1034 H       1  LIG1        0.0274
     83 H          -3.9786   -5.4980   -6.4824 H       1  LIG1        0.0274
     84 H          -6.5462    5.1826   -9.7665 H       1  LIG1        0.0342
     85 H          -4.9402    5.5675   -9.1642 H       1  LIG1        0.0342
     86 H          -4.4995   -6.2944   -9.3779 H       1  LIG1        0.0271
     87 H          -3.3075   -6.9757   -8.2912 H       1  LIG1        0.0271
     88 H          -8.8703    4.7609   -8.6563 H       1  LIG1        0.0239
     89 H          -9.1625    5.8599   -7.3381 H       1  LIG1        0.0239
     90 H          -9.6262    4.1673   -7.1673 H       1  LIG1        0.0239
     91 H          -6.5758    4.7677   -4.9701 H       1  LIG1        0.0239
     92 H          -8.3206    4.4480   -4.9229 H       1  LIG1        0.0239
     93 H          -7.7314    6.0368   -5.3699 H       1  LIG1        0.0239
     94 H          -2.9309   -5.6155  -11.1365 H       1  LIG1        0.0235
     95 H          -1.6608   -6.4485  -10.2301 H       1  LIG1        0.0235
     96 H          -1.4295   -4.7683  -10.7386 H       1  LIG1        0.0235
     97 H          -1.9970   -4.5235   -7.0308 H       1  LIG1        0.0235
     98 H          -0.9061   -4.1171   -8.3550 H       1  LIG1        0.0235
     99 H          -1.1229   -5.8031   -7.8694 H       1  LIG1        0.0235
    100 H          -2.0573    2.0442   -6.4407 H       1  LIG1        0.0689
    101 H          -0.4069    0.0175   -8.1139 H       1  LIG1        0.0626
    102 H           1.5996    1.0354   -6.4274 H       1  LIG1        0.0660
    103 H           1.2389    4.8922   -9.5107 H       1  LIG1        0.0637
    104 H           3.2686    4.5697   -8.1996 H       1  LIG1        0.0655
    105 H           0.8405    3.3071  -11.5392 H       1  LIG1        0.0670
    106 H          -0.5509    5.8386  -12.6105 H       1  LIG1        0.0637
@<TRIPOS>BOND
     1     1    41    1
     2     1    28    1
     3     2    34    2
     4     3    38   ar
     5     4    38   ar
     6     5    41    2
     7     6    48    1
     8     7    50    2
     9     8    53   ar
    10     9    53   ar
    11    10    45    1
    12    10    50   am
    13    11    16    1
    14    11    12    1
    15    11    26    1
    16    11    13    1
    17    12    14    1
    18    13    20    1
    19    13    17    1
    20    13    28    1
    21    14    15    1
    22    14    24    1
    23    14    29    1
    24    15    19    1
    25    15    23    1
    26    16    19    1
    27    17    18    1
    28    17    27    2
    29    18    30    1
    30    18    22    1
    31    20    25    1
    32    21    27    1
    33    21    12    1
    34    22    31    1
    35    22    25    1
    36    22    38    1
    37    23    34    1
    38    23    37    1
    39    23    36    1
    40    24    32    1
    41    30    33    1
    42    31    35    1
    43    32    34    1
    44    33    35    1
    45    33    40    1
    46    33    39    1
    47    41    42    1
    48    42    43    2
    49    43    44    1
    50    44    46   ar
    51    44    45   ar
    52    45    47   ar
    53    46    48   ar
    54    47    49   ar
    55    48    49   ar
    56    50    51    1
    57    51    52    2
    58    52    53    1
    59     6    54    1
    60    10    55    1
    61    12    56    1
    62    15    57    1
    63    16    58    1
    64    16    59    1
    65    18    60    1
    66    19    61    1
    67    19    62    1
    68    20    63    1
    69    20    64    1
    70    21    65    1
    71    21    66    1
    72    24    67    1
    73    24    68    1
    74    25    69    1
    75    25    70    1
    76    26    71    1
    77    26    72    1
    78    26    73    1
    79    27    74    1
    80    28    75    1
    81    28    76    1
    82    29    77    1
    83    29    78    1
    84    29    79    1
    85    30    80    1
    86    30    81    1
    87    31    82    1
    88    31    83    1
    89    32    84    1
    90    32    85    1
    91    35    86    1
    92    35    87    1
    93    36    88    1
    94    36    89    1
    95    36    90    1
    96    37    91    1
    97    37    92    1
    98    37    93    1
    99    39    94    1
   100    39    95    1
   101    39    96    1
   102    40    97    1
   103    40    98    1
   104    40    99    1
   105    42   100    1
   106    43   101    1
   107    46   102    1
   108    47   103    1
   109    49   104    1
   110    51   105    1
   111    52   106    1
@<TRIPOS>MOLECULE
11672244
 106 111 0 0 0
SMALL
GASTEIGER

@<TRIPOS>ATOM
      1 O          -3.7267    0.1057   -6.2791 O.3     1  LIG1       -0.4607
      2 O          -6.1845    6.5340   -7.2931 O.2     1  LIG1       -0.2968
      3 O          -6.4503   -4.3725   -9.8668 O.co2   1  LIG1       -0.5492
      4 O          -7.6349   -5.1153   -8.0789 O.co2   1  LIG1       -0.5492
      5 O          -2.0841   -1.3746   -6.9753 O.2     1  LIG1       -0.2456
      6 O           0.2631    6.2364   -6.7792 O.3     1  LIG1       -0.5067
      7 O           1.6266   -0.1630   -2.7688 O.2     1  LIG1       -0.2705
      8 O           1.1484    3.9278    0.0666 O.co2   1  LIG1       -0.5452
      9 O           3.0880    3.0929    0.9394 O.co2   1  LIG1       -0.5452
     10 N           0.6827    1.3243   -4.1835 N.am    1  LIG1       -0.2815
     11 C          -6.7163   -0.0200   -7.4177 C.3     1  LIG1       -0.0160
     12 C          -5.9153    1.0218   -8.2817 C.3     1  LIG1       -0.0256
     13 C          -5.7447   -1.2863   -7.0377 C.3     1  LIG1        0.0318
     14 C          -6.5598    2.4767   -8.4693 C.3     1  LIG1       -0.0243
     15 C          -6.9995    2.9941   -7.0510 C.3     1  LIG1       -0.0235
     16 C          -7.2597    0.6627   -6.1367 C.3     1  LIG1       -0.0461
     17 C          -5.0197   -1.8067   -8.2987 C.2     1  LIG1       -0.0596
     18 C          -4.4041   -3.2188   -8.1833 C.3     1  LIG1       -0.0080
     19 C          -7.9654    1.9952   -6.3850 C.3     1  LIG1       -0.0483
     20 C          -6.6236   -2.4303   -6.4138 C.3     1  LIG1       -0.0392
     21 C          -5.4095    0.3558   -9.5799 C.3     1  LIG1       -0.0306
     22 C          -5.4166   -4.2772   -7.6894 C.3     1  LIG1        0.0167
     23 C          -7.4540    4.4902   -6.9547 C.3     1  LIG1        0.0267
     24 C          -5.4452    3.4440   -8.9674 C.3     1  LIG1       -0.0404
     25 C          -5.9546   -3.8024   -6.3178 C.3     1  LIG1       -0.0408
     26 C          -7.9509   -0.5376   -8.2266 C.3     1  LIG1       -0.0584
     27 C          -4.8989   -1.0441   -9.4042 C.2     1  LIG1       -0.0835
     28 C          -4.6381   -0.9606   -5.9549 C.3     1  LIG1        0.1025
     29 C          -7.7058    2.5004   -9.5090 C.3     1  LIG1       -0.0590
     30 C          -3.5281   -3.6964   -9.3657 C.3     1  LIG1       -0.0405
     31 C          -4.7187   -5.6443   -7.4738 C.3     1  LIG1       -0.0412
     32 C          -5.8504    4.9120   -8.9877 C.3     1  LIG1        0.0069
     33 C          -2.8282   -5.0515   -9.1077 C.3     1  LIG1       -0.0343
     34 C          -6.4336    5.3871   -7.6776 C.2     1  LIG1        0.1392
     35 C          -3.8643   -6.0997   -8.6584 C.3     1  LIG1       -0.0470
     36 C          -8.8491    4.7869   -7.5241 C.3     1  LIG1       -0.0528
     37 C          -7.4720    4.9248   -5.4645 C.3     1  LIG1       -0.0528
     38 C          -6.6167   -4.6073   -8.6376 C.2     1  LIG1        0.0485
     39 C          -2.1681   -5.5285  -10.4155 C.3     1  LIG1       -0.0598
     40 C          -1.7112   -4.8996   -8.0531 C.3     1  LIG1       -0.0598
     41 C          -2.4969   -0.2547   -6.7212 C.2     1  LIG1        0.3320
     42 C          -1.5916    0.9042   -6.8056 C.2     1  LIG1        0.0231
     43 C          -1.5945    1.8301   -5.8380 C.2     1  LIG1       -0.0460
     44 C          -0.5177    2.8155   -5.6968 C.ar    1  LIG1       -0.0001
     45 C           0.5557    2.5856   -4.8082 C.ar    1  LIG1        0.0411
     46 C          -0.6227    4.0411   -6.3686 C.ar    1  LIG1       -0.0113
     47 C           1.5138    3.5893   -4.6195 C.ar    1  LIG1       -0.0364
     48 C           0.3398    5.0247   -6.1571 C.ar    1  LIG1        0.1175
     49 C           1.4056    4.8066   -5.2944 C.ar    1  LIG1       -0.0184
     50 C           1.2741    0.9912   -2.9908 C.2     1  LIG1        0.2411
     51 C           1.3055    2.0502   -1.9548 C.2     1  LIG1        0.0021
     52 C           2.1603    2.0245   -0.9232 C.2     1  LIG1       -0.0344
     53 C           2.1183    3.1226    0.1278 C.2     1  LIG1        0.0647
     54 H          -0.6180    6.3169   -7.1794 H       1  LIG1        0.2921
     55 H           0.3362    0.5165   -4.6858 H       1  LIG1        0.1551
     56 H          -5.0109    1.2401   -7.7076 H       1  LIG1        0.0315
     57 H          -6.0787    2.9583   -6.4440 H       1  LIG1        0.0315
     58 H          -6.4440    0.8703   -5.4378 H       1  LIG1        0.0271
     59 H          -7.9498   -0.0062   -5.6087 H       1  LIG1        0.0271
     60 H          -3.6815   -3.1205   -7.3670 H       1  LIG1        0.0355
     61 H          -8.8733    1.8467   -6.9763 H       1  LIG1        0.0269
     62 H          -8.3004    2.3641   -5.4112 H       1  LIG1        0.0269
     63 H          -7.5379   -2.5890   -6.9875 H       1  LIG1        0.0275
     64 H          -6.9519   -2.1361   -5.4088 H       1  LIG1        0.0275
     65 H          -6.1917    0.3093  -10.3418 H       1  LIG1        0.0310
     66 H          -4.5942    0.9560   -9.9995 H       1  LIG1        0.0310
     67 H          -5.1200    3.1645   -9.9764 H       1  LIG1        0.0275
     68 H          -4.5634    3.3471   -8.3194 H       1  LIG1        0.0275
     69 H          -6.6748   -4.5178   -5.9008 H       1  LIG1        0.0275
     70 H          -5.1402   -3.7623   -5.5838 H       1  LIG1        0.0275
     71 H          -8.4962    0.2519   -8.7337 H       1  LIG1        0.0235
     72 H          -8.6924   -1.0118   -7.5743 H       1  LIG1        0.0235
     73 H          -7.6739   -1.2658   -8.9952 H       1  LIG1        0.0235
     74 H          -4.4109   -1.4533  -10.2848 H       1  LIG1        0.0572
     75 H          -5.1175   -0.6656   -5.0153 H       1  LIG1        0.0706
     76 H          -4.0646   -1.8512   -5.6769 H       1  LIG1        0.0706
     77 H          -8.6731    2.2259   -9.0861 H       1  LIG1        0.0235
     78 H          -7.5144    1.8456  -10.3608 H       1  LIG1        0.0235
     79 H          -7.8525    3.4854   -9.9553 H       1  LIG1        0.0235
     80 H          -2.7576   -2.9412   -9.5743 H       1  LIG1        0.0276
     81 H          -4.1297   -3.7685  -10.2787 H       1  LIG1        0.0276
     82 H          -5.4555   -6.4287   -7.2554 H       1  LIG1        0.0274
     83 H          -4.0789   -5.5942   -6.5832 H       1  LIG1        0.0274
     84 H          -6.5708    5.1305   -9.7808 H       1  LIG1        0.0342
     85 H          -4.9585    5.5144   -9.1986 H       1  LIG1        0.0342
     86 H          -4.5258   -6.3494   -9.4974 H       1  LIG1        0.0271
     87 H          -3.3568   -7.0346   -8.3874 H       1  LIG1        0.0271
     88 H          -8.8917    4.7135   -8.6112 H       1  LIG1        0.0239
     89 H          -9.1513    5.8156   -7.2894 H       1  LIG1        0.0239
     90 H          -9.6109    4.1238   -7.1025 H       1  LIG1        0.0239
     91 H          -6.5063    4.7321   -4.9834 H       1  LIG1        0.0239
     92 H          -8.2488    4.4085   -4.8926 H       1  LIG1        0.0239
     93 H          -7.6737    5.9976   -5.3587 H       1  LIG1        0.0239
     94 H          -2.9104   -5.6636  -11.2099 H       1  LIG1        0.0235
     95 H          -1.6558   -6.4868  -10.2729 H       1  LIG1        0.0235
     96 H          -1.4276   -4.8032  -10.7715 H       1  LIG1        0.0235
     97 H          -2.0894   -4.5908   -7.0747 H       1  LIG1        0.0235
     98 H          -0.9745   -4.1514   -8.3680 H       1  LIG1        0.0235
     99 H          -1.1781   -5.8462   -7.9079 H       1  LIG1        0.0235
    100 H          -0.8140    0.8403   -7.5570 H       1  LIG1        0.0689
    101 H          -2.3149    1.8094   -5.0231 H       1  LIG1        0.0626
    102 H          -1.4621    4.2224   -7.0324 H       1  LIG1        0.0660
    103 H           2.3733    3.4339   -3.9714 H       1  LIG1        0.0637
    104 H           2.1515    5.5802   -5.1353 H       1  LIG1        0.0655
    105 H           0.5653    2.8403   -2.0332 H       1  LIG1        0.0670
    106 H           2.8968    1.2372   -0.8168 H       1  LIG1        0.0637
@<TRIPOS>BOND
     1     1    41    1
     2     1    28    1
     3     2    34    2
     4     3    38   ar
     5     4    38   ar
     6     5    41    2
     7     6    48    1
     8     7    50    2
     9     8    53   ar
    10     9    53   ar
    11    10    45    1
    12    10    50   am
    13    11    16    1
    14    11    12    1
    15    11    26    1
    16    11    13    1
    17    12    14    1
    18    13    20    1
    19    13    17    1
    20    13    28    1
    21    14    15    1
    22    14    24    1
    23    14    29    1
    24    15    19    1
    25    15    23    1
    26    16    19    1
    27    17    18    1
    28    17    27    2
    29    18    30    1
    30    18    22    1
    31    20    25    1
    32    21    27    1
    33    21    12    1
    34    22    31    1
    35    22    25    1
    36    22    38    1
    37    23    34    1
    38    23    37    1
    39    23    36    1
    40    24    32    1
    41    30    33    1
    42    31    35    1
    43    32    34    1
    44    33    35    1
    45    33    40    1
    46    33    39    1
    47    41    42    1
    48    42    43    2
    49    43    44    1
    50    44    46   ar
    51    44    45   ar
    52    45    47   ar
    53    46    48   ar
    54    47    49   ar
    55    48    49   ar
    56    50    51    1
    57    51    52    2
    58    52    53    1
    59     6    54    1
    60    10    55    1
    61    12    56    1
    62    15    57    1
    63    16    58    1
    64    16    59    1
    65    18    60    1
    66    19    61    1
    67    19    62    1
    68    20    63    1
    69    20    64    1
    70    21    65    1
    71    21    66    1
    72    24    67    1
    73    24    68    1
    74    25    69    1
    75    25    70    1
    76    26    71    1
    77    26    72    1
    78    26    73    1
    79    27    74    1
    80    28    75    1
    81    28    76    1
    82    29    77    1
    83    29    78    1
    84    29    79    1
    85    30    80    1
    86    30    81    1
    87    31    82    1
    88    31    83    1
    89    32    84    1
    90    32    85    1
    91    35    86    1
    92    35    87    1
    93    36    88    1
    94    36    89    1
    95    36    90    1
    96    37    91    1
    97    37    92    1
    98    37    93    1
    99    39    94    1
   100    39    95    1
   101    39    96    1
   102    40    97    1
   103    40    98    1
   104    40    99    1
   105    42   100    1
   106    43   101    1
   107    46   102    1
   108    47   103    1
   109    49   104    1
   110    51   105    1
   111    52   106    1
@<TRIPOS>MOLECULE
11672244
 106 111 0 0 0
SMALL
GASTEIGER

@<TRIPOS>ATOM
      1 O          -3.7082    0.1372   -6.3186 O.3     1  LIG1       -0.4607
      2 O          -6.2024    6.5302   -7.2505 O.2     1  LIG1       -0.2968
      3 O          -6.3757   -4.5269   -9.8601 O.co2   1  LIG1       -0.5492
      4 O          -7.6906   -4.9252   -8.0545 O.co2   1  LIG1       -0.5492
      5 O          -2.0781   -1.3564   -7.0210 O.2     1  LIG1       -0.2456
      6 O           0.3132    6.2358   -6.7054 O.3     1  LIG1       -0.5067
      7 O           1.6845   -0.2318   -2.8251 O.2     1  LIG1       -0.2705
      8 O           0.9658    3.8522   -0.0191 O.co2   1  LIG1       -0.5452
      9 O           2.9304    3.1351    0.9035 O.co2   1  LIG1       -0.5452
     10 N           0.7647    1.2499   -4.2646 N.am    1  LIG1       -0.2815
     11 C          -6.7244   -0.0157   -7.4239 C.3     1  LIG1       -0.0160
     12 C          -5.9238    1.0339   -8.2775 C.3     1  LIG1       -0.0256
     13 C          -5.7388   -1.2658   -7.0305 C.3     1  LIG1        0.0318
     14 C          -6.5731    2.4853   -8.4654 C.3     1  LIG1       -0.0243
     15 C          -7.0285    2.9909   -7.0477 C.3     1  LIG1       -0.0235
     16 C          -7.2993    0.6555   -6.1506 C.3     1  LIG1       -0.0461
     17 C          -5.0193   -1.7938   -8.2911 C.2     1  LIG1       -0.0596
     18 C          -4.4028   -3.2033   -8.1676 C.3     1  LIG1       -0.0080
     19 C          -8.0041    1.9873   -6.4039 C.3     1  LIG1       -0.0483
     20 C          -6.6028   -2.4018   -6.3749 C.3     1  LIG1       -0.0392
     21 C          -5.3964    0.3733   -9.5706 C.3     1  LIG1       -0.0306
     22 C          -5.4135   -4.2579   -7.6639 C.3     1  LIG1        0.0167
     23 C          -7.4797    4.4867   -6.9394 C.3     1  LIG1        0.0267
     24 C          -5.4580    3.4595   -8.9484 C.3     1  LIG1       -0.0404
     25 C          -5.9384   -3.7765   -6.2891 C.3     1  LIG1       -0.0408
     26 C          -7.9397   -0.5506   -8.2526 C.3     1  LIG1       -0.0584
     27 C          -4.8935   -1.0311   -9.3965 C.2     1  LIG1       -0.0835
     28 C          -4.6217   -0.9176   -5.9641 C.3     1  LIG1        0.1025
     29 C          -7.7076    2.5077   -9.5171 C.3     1  LIG1       -0.0590
     30 C          -3.5235   -3.6853   -9.3444 C.3     1  LIG1       -0.0405
     31 C          -4.7153   -5.6241   -7.4415 C.3     1  LIG1       -0.0412
     32 C          -5.8691    4.9257   -8.9621 C.3     1  LIG1        0.0069
     33 C          -2.8144   -5.0325   -9.0712 C.3     1  LIG1       -0.0343
     34 C          -6.4545    5.3888   -7.6488 C.2     1  LIG1        0.1392
     35 C          -3.8381   -6.0866   -8.6070 C.3     1  LIG1       -0.0470
     36 C          -8.8717    4.7911   -7.5113 C.3     1  LIG1       -0.0528
     37 C          -7.5026    4.9066   -5.4449 C.3     1  LIG1       -0.0528
     38 C          -6.6085   -4.5860   -8.6198 C.2     1  LIG1        0.0485
     39 C          -2.1525   -5.5189  -10.3747 C.3     1  LIG1       -0.0598
     40 C          -1.6970   -4.8572   -8.0205 C.3     1  LIG1       -0.0598
     41 C          -2.4866   -0.2335   -6.7743 C.2     1  LIG1        0.3320
     42 C          -1.5841    0.9242   -6.8817 C.2     1  LIG1        0.0231
     43 C          -1.5293    1.8013   -5.8714 C.2     1  LIG1       -0.0460
     44 C          -0.4478    2.7789   -5.7310 C.ar    1  LIG1       -0.0001
     45 C           0.6317    2.5268   -4.8591 C.ar    1  LIG1        0.0411
     46 C          -0.5595    4.0239   -6.3636 C.ar    1  LIG1       -0.0113
     47 C           1.5891    3.5251   -4.6425 C.ar    1  LIG1       -0.0364
     48 C           0.4010    5.0035   -6.1264 C.ar    1  LIG1        0.1175
     49 C           1.4734    4.7613   -5.2782 C.ar    1  LIG1       -0.0184
     50 C           1.3104    0.9158   -3.0515 C.2     1  LIG1        0.2411
     51 C           1.2627    1.9637   -2.0093 C.2     1  LIG1        0.0021
     52 C           2.1007    1.9963   -0.9689 C.2     1  LIG1       -0.0344
     53 C           1.9784    3.1007    0.0729 C.2     1  LIG1        0.0647
     54 H          -0.5818    6.3353   -7.0690 H       1  LIG1        0.2921
     55 H           0.4402    0.4483   -4.7915 H       1  LIG1        0.1551
     56 H          -5.0289    1.2589   -7.6928 H       1  LIG1        0.0315
     57 H          -6.1148    2.9469   -6.4305 H       1  LIG1        0.0315
     58 H          -6.5015    0.8583   -5.4303 H       1  LIG1        0.0271
     59 H          -8.0000   -0.0195   -5.6444 H       1  LIG1        0.0271
     60 H          -3.6814   -3.0987   -7.3509 H       1  LIG1        0.0355
     61 H          -8.9010    1.8399   -7.0120 H       1  LIG1        0.0269
     62 H          -8.3581    2.3502   -5.4346 H       1  LIG1        0.0269
     63 H          -7.5373   -2.5547   -6.9151 H       1  LIG1        0.0275
     64 H          -6.8975   -2.1006   -5.3612 H       1  LIG1        0.0275
     65 H          -6.1651    0.3357  -10.3465 H       1  LIG1        0.0310
     66 H          -4.5714    0.9737   -9.9708 H       1  LIG1        0.0310
     67 H          -5.1238    3.1871   -9.9564 H       1  LIG1        0.0275
     68 H          -4.5811    3.3622   -8.2938 H       1  LIG1        0.0275
     69 H          -6.6560   -4.4907   -5.8648 H       1  LIG1        0.0275
     70 H          -5.1169   -3.7372   -5.5627 H       1  LIG1        0.0275
     71 H          -8.4878    0.2335   -8.7656 H       1  LIG1        0.0235
     72 H          -8.6850   -1.0377   -7.6147 H       1  LIG1        0.0235
     73 H          -7.6424   -1.2732   -9.0187 H       1  LIG1        0.0235
     74 H          -4.4017   -1.4403  -10.2750 H       1  LIG1        0.0572
     75 H          -5.0914   -0.5983   -5.0279 H       1  LIG1        0.0706
     76 H          -4.0487   -1.8041   -5.6713 H       1  LIG1        0.0706
     77 H          -8.6741    2.2050   -9.1125 H       1  LIG1        0.0235
     78 H          -7.4915    1.8748  -10.3797 H       1  LIG1        0.0235
     79 H          -7.8692    3.4988   -9.9442 H       1  LIG1        0.0235
     80 H          -2.7572   -2.9272   -9.5583 H       1  LIG1        0.0276
     81 H          -4.1216   -3.7666  -10.2586 H       1  LIG1        0.0276
     82 H          -5.4574   -6.4065   -7.2331 H       1  LIG1        0.0274
     83 H          -4.0882   -5.5728   -6.5417 H       1  LIG1        0.0274
     84 H          -6.5902    5.1457   -9.7540 H       1  LIG1        0.0342
     85 H          -4.9797    5.5331   -9.1688 H       1  LIG1        0.0342
     86 H          -4.4845   -6.3706   -9.4463 H       1  LIG1        0.0271
     87 H          -3.3166   -7.0057   -8.3089 H       1  LIG1        0.0271
     88 H          -8.9155    4.7072   -8.5975 H       1  LIG1        0.0239
     89 H          -9.1639    5.8246   -7.2857 H       1  LIG1        0.0239
     90 H          -9.6393    4.1386   -7.0835 H       1  LIG1        0.0239
     91 H          -6.5383    4.7096   -4.9626 H       1  LIG1        0.0239
     92 H          -8.2805    4.3840   -4.8801 H       1  LIG1        0.0239
     93 H          -7.7053    5.9782   -5.3292 H       1  LIG1        0.0239
     94 H          -2.8959   -5.6715  -11.1650 H       1  LIG1        0.0235
     95 H          -1.6302   -6.4701  -10.2218 H       1  LIG1        0.0235
     96 H          -1.4208   -4.7905  -10.7421 H       1  LIG1        0.0235
     97 H          -2.0788   -4.5526   -7.0421 H       1  LIG1        0.0235
     98 H          -0.9748   -4.0968   -8.3403 H       1  LIG1        0.0235
     99 H          -1.1458   -5.7931   -7.8738 H       1  LIG1        0.0235
    100 H          -0.8499    0.8890   -7.6770 H       1  LIG1        0.0689
    101 H          -2.2038    1.7353   -5.0184 H       1  LIG1        0.0626
    102 H          -1.4072    4.2255   -7.0119 H       1  LIG1        0.0660
    103 H           2.4485    3.3517   -3.9983 H       1  LIG1        0.0637
    104 H           2.2166    5.5343   -5.0958 H       1  LIG1        0.0655
    105 H           0.4762    2.7109   -2.1002 H       1  LIG1        0.0670
    106 H           2.8846    1.2589   -0.8476 H       1  LIG1        0.0637
@<TRIPOS>BOND
     1     1    41    1
     2     1    28    1
     3     2    34    2
     4     3    38   ar
     5     4    38   ar
     6     5    41    2
     7     6    48    1
     8     7    50    2
     9     8    53   ar
    10     9    53   ar
    11    10    45    1
    12    10    50   am
    13    11    16    1
    14    11    12    1
    15    11    26    1
    16    11    13    1
    17    12    14    1
    18    13    20    1
    19    13    17    1
    20    13    28    1
    21    14    15    1
    22    14    24    1
    23    14    29    1
    24    15    19    1
    25    15    23    1
    26    16    19    1
    27    17    18    1
    28    17    27    2
    29    18    30    1
    30    18    22    1
    31    20    25    1
    32    21    27    1
    33    21    12    1
    34    22    31    1
    35    22    25    1
    36    22    38    1
    37    23    34    1
    38    23    37    1
    39    23    36    1
    40    24    32    1
    41    30    33    1
    42    31    35    1
    43    32    34    1
    44    33    35    1
    45    33    40    1
    46    33    39    1
    47    41    42    1
    48    42    43    2
    49    43    44    1
    50    44    46   ar
    51    44    45   ar
    52    45    47   ar
    53    46    48   ar
    54    47    49   ar
    55    48    49   ar
    56    50    51    1
    57    51    52    2
    58    52    53    1
    59     6    54    1
    60    10    55    1
    61    12    56    1
    62    15    57    1
    63    16    58    1
    64    16    59    1
    65    18    60    1
    66    19    61    1
    67    19    62    1
    68    20    63    1
    69    20    64    1
    70    21    65    1
    71    21    66    1
    72    24    67    1
    73    24    68    1
    74    25    69    1
    75    25    70    1
    76    26    71    1
    77    26    72    1
    78    26    73    1
    79    27    74    1
    80    28    75    1
    81    28    76    1
    82    29    77    1
    83    29    78    1
    84    29    79    1
    85    30    80    1
    86    30    81    1
    87    31    82    1
    88    31    83    1
    89    32    84    1
    90    32    85    1
    91    35    86    1
    92    35    87    1
    93    36    88    1
    94    36    89    1
    95    36    90    1
    96    37    91    1
    97    37    92    1
    98    37    93    1
    99    39    94    1
   100    39    95    1
   101    39    96    1
   102    40    97    1
   103    40    98    1
   104    40    99    1
   105    42   100    1
   106    43   101    1
   107    46   102    1
   108    47   103    1
   109    49   104    1
   110    51   105    1
   111    52   106    1
@<TRIPOS>MOLECULE
11672244
 106 111 0 0 0
SMALL
GASTEIGER

@<TRIPOS>ATOM
      1 O          -3.7220   -1.5546   -5.3819 O.3     1  LIG1       -0.4607
      2 O          -6.3051    6.6002   -7.1712 O.2     1  LIG1       -0.2968
      3 O          -6.2762   -4.0745  -10.0261 O.co2   1  LIG1       -0.5492
      4 O          -7.7405   -4.2074   -8.3011 O.co2   1  LIG1       -0.5492
      5 O          -1.8065   -0.5853   -6.2449 O.2     1  LIG1       -0.2456
      6 O           3.7965   -3.4938   -2.9452 O.3     1  LIG1       -0.5067
      7 O          -1.6612   -6.7639   -2.1501 O.2     1  LIG1       -0.2705
      8 O          -5.0296   -8.7320   -5.1224 O.co2   1  LIG1       -0.5452
      9 O          -6.2096   -8.6276   -3.1623 O.co2   1  LIG1       -0.5452
     10 N          -1.2897   -5.5182   -4.0692 N.am    1  LIG1       -0.2815
     11 C          -6.6921    0.0642   -7.4555 C.3     1  LIG1       -0.0160
     12 C          -5.8838    1.1627   -8.2446 C.3     1  LIG1       -0.0256
     13 C          -5.6383   -1.1185   -6.9945 C.3     1  LIG1        0.0318
     14 C          -6.5793    2.5814   -8.4611 C.3     1  LIG1       -0.0243
     15 C          -7.1058    3.0511   -7.0586 C.3     1  LIG1       -0.0235
     16 C          -7.4087    0.6892   -6.2248 C.3     1  LIG1       -0.0461
     17 C          -4.8537   -1.6167   -8.2377 C.2     1  LIG1       -0.0596
     18 C          -4.2891   -3.0483   -8.1749 C.3     1  LIG1       -0.0080
     19 C          -8.1058    2.0225   -6.4921 C.3     1  LIG1       -0.0483
     20 C          -6.4303   -2.2543   -6.2679 C.3     1  LIG1       -0.0392
     21 C          -5.2419    0.5524   -9.5080 C.3     1  LIG1       -0.0306
     22 C          -5.3883   -4.0564   -7.7802 C.3     1  LIG1        0.0167
     23 C          -7.5726    4.5398   -6.9368 C.3     1  LIG1        0.0267
     24 C          -5.4838    3.5935   -8.9082 C.3     1  LIG1       -0.0404
     25 C          -5.8627   -3.6697   -6.3593 C.3     1  LIG1       -0.0408
     26 C          -7.8073   -0.5437   -8.3685 C.3     1  LIG1       -0.0584
     27 C          -4.6962   -0.8308   -9.3228 C.2     1  LIG1       -0.0835
     28 C          -4.5597   -0.5519   -5.9872 C.3     1  LIG1        0.1025
     29 C          -7.6738    2.5604   -9.5543 C.3     1  LIG1       -0.0590
     30 C          -3.4104   -3.5108   -9.3652 C.3     1  LIG1       -0.0405
     31 C          -4.8340   -5.4997   -7.6948 C.3     1  LIG1       -0.0412
     32 C          -5.9399    5.0443   -8.9218 C.3     1  LIG1        0.0069
     33 C          -2.8353   -4.9376   -9.2048 C.3     1  LIG1       -0.0343
     34 C          -6.5455    5.4698   -7.6069 C.2     1  LIG1        0.1392
     35 C          -3.9681   -5.9289   -8.8787 C.3     1  LIG1       -0.0470
     36 C          -8.9545    4.8340   -7.5353 C.3     1  LIG1       -0.0528
     37 C          -7.6286    4.9327   -5.4359 C.3     1  LIG1       -0.0528
     38 C          -6.5802   -4.1219   -8.7983 C.2     1  LIG1        0.0485
     39 C          -2.1714   -5.3613  -10.5295 C.3     1  LIG1       -0.0598
     40 C          -1.7509   -4.9687   -8.1093 C.3     1  LIG1       -0.0598
     41 C          -2.3906   -1.4297   -5.5840 C.2     1  LIG1        0.3320
     42 C          -1.7129   -2.4787   -4.7981 C.2     1  LIG1        0.0231
     43 C          -0.4643   -2.8374   -5.1319 C.2     1  LIG1       -0.0460
     44 C           0.3774   -3.7258   -4.3146 C.ar    1  LIG1       -0.0001
     45 C          -0.0262   -4.9578   -3.7548 C.ar    1  LIG1        0.0411
     46 C           1.6750   -3.2414   -4.0468 C.ar    1  LIG1       -0.0113
     47 C           0.8737   -5.6506   -2.9301 C.ar    1  LIG1       -0.0364
     48 C           2.5436   -3.9533   -3.2262 C.ar    1  LIG1        0.1175
     49 C           2.1509   -5.1542   -2.6632 C.ar    1  LIG1       -0.0184
     50 C          -1.9585   -6.4468   -3.2967 C.2     1  LIG1        0.2411
     51 C          -3.1311   -7.0340   -3.9866 C.2     1  LIG1        0.0021
     52 C          -4.1217   -7.5847   -3.2696 C.2     1  LIG1       -0.0344
     53 C          -5.2402   -8.3729   -3.9317 C.2     1  LIG1        0.0647
     54 H           3.9086   -2.6341   -3.3816 H       1  LIG1        0.2921
     55 H          -1.7856   -5.1566   -4.8745 H       1  LIG1        0.1551
     56 H          -5.0361    1.4171   -7.5982 H       1  LIG1        0.0315
     57 H          -6.2235    2.9992   -6.3980 H       1  LIG1        0.0315
     58 H          -6.7035    0.8831   -5.4148 H       1  LIG1        0.0271
     59 H          -8.1412   -0.0147   -5.8107 H       1  LIG1        0.0271
     60 H          -3.5788   -3.0246   -7.3431 H       1  LIG1        0.0355
     61 H          -8.9667    1.8779   -7.1499 H       1  LIG1        0.0269
     62 H          -8.5179    2.3642   -5.5377 H       1  LIG1        0.0269
     63 H          -7.4544   -2.3177   -6.6339 H       1  LIG1        0.0275
     64 H          -6.5473   -1.9978   -5.2062 H       1  LIG1        0.0275
     65 H          -5.9582    0.4978  -10.3324 H       1  LIG1        0.0310
     66 H          -4.4185    1.1911   -9.8463 H       1  LIG1        0.0310
     67 H          -5.1183    3.3410   -9.9107 H       1  LIG1        0.0275
     68 H          -4.6199    3.5172   -8.2341 H       1  LIG1        0.0275
     69 H          -6.6204   -4.3772   -5.9966 H       1  LIG1        0.0275
     70 H          -5.0281   -3.7595   -5.6516 H       1  LIG1        0.0275
     71 H          -8.3954    0.2149   -8.8774 H       1  LIG1        0.0235
     72 H          -8.5405   -1.1226   -7.7986 H       1  LIG1        0.0235
     73 H          -7.4102   -1.2035   -9.1440 H       1  LIG1        0.0235
     74 H          -4.1830   -1.2199  -10.1979 H       1  LIG1        0.0572
     75 H          -3.9468    0.2218   -6.4561 H       1  LIG1        0.0706
     76 H          -5.0436   -0.0780   -5.1323 H       1  LIG1        0.0706
     77 H          -8.6355    2.1919   -9.1974 H       1  LIG1        0.0235
     78 H          -7.3868    1.9588  -10.4191 H       1  LIG1        0.0235
     79 H          -7.8783    3.5505   -9.9650 H       1  LIG1        0.0235
     80 H          -2.5748   -2.8072   -9.4869 H       1  LIG1        0.0276
     81 H          -3.9765   -3.4602  -10.3017 H       1  LIG1        0.0276
     82 H          -5.6576   -6.2180   -7.5863 H       1  LIG1        0.0274
     83 H          -4.2333   -5.6067   -6.7825 H       1  LIG1        0.0274
     84 H          -6.6630    5.2461   -9.7165 H       1  LIG1        0.0342
     85 H          -5.0688    5.6809   -9.1182 H       1  LIG1        0.0342
     86 H          -4.6088   -6.0654   -9.7581 H       1  LIG1        0.0271
     87 H          -3.5463   -6.9197   -8.6636 H       1  LIG1        0.0271
     88 H          -8.9794    4.7276   -8.6202 H       1  LIG1        0.0239
     89 H          -9.2501    5.8709   -7.3317 H       1  LIG1        0.0239
     90 H          -9.7281    4.1878   -7.1087 H       1  LIG1        0.0239
     91 H          -6.6642    4.7572   -4.9448 H       1  LIG1        0.0239
     92 H          -8.3953    4.3761   -4.8894 H       1  LIG1        0.0239
     93 H          -7.8640    5.9959   -5.3057 H       1  LIG1        0.0239
     94 H          -2.8960   -5.3735  -11.3514 H       1  LIG1        0.0235
     95 H          -1.7408   -6.3662  -10.4524 H       1  LIG1        0.0235
     96 H          -1.3657   -4.6722  -10.8066 H       1  LIG1        0.0235
     97 H          -2.1446   -4.7025   -7.1258 H       1  LIG1        0.0235
     98 H          -0.9402   -4.2678   -8.3392 H       1  LIG1        0.0235
     99 H          -1.3082   -5.9674   -8.0211 H       1  LIG1        0.0235
    100 H          -2.2440   -2.8733   -3.9403 H       1  LIG1        0.0689
    101 H           0.0199   -2.3820   -5.9948 H       1  LIG1        0.0626
    102 H           1.9870   -2.2893   -4.4685 H       1  LIG1        0.0660
    103 H           0.6106   -6.6158   -2.5017 H       1  LIG1        0.0637
    104 H           2.8279   -5.7141   -2.0267 H       1  LIG1        0.0655
    105 H          -3.1221   -7.0978   -5.0688 H       1  LIG1        0.0670
    106 H          -4.1358   -7.5335   -2.1861 H       1  LIG1        0.0637
@<TRIPOS>BOND
     1     1    41    1
     2     1    28    1
     3     2    34    2
     4     3    38   ar
     5     4    38   ar
     6     5    41    2
     7     6    48    1
     8     7    50    2
     9     8    53   ar
    10     9    53   ar
    11    10    45    1
    12    10    50   am
    13    11    16    1
    14    11    12    1
    15    11    26    1
    16    11    13    1
    17    12    14    1
    18    13    20    1
    19    13    17    1
    20    13    28    1
    21    14    15    1
    22    14    24    1
    23    14    29    1
    24    15    19    1
    25    15    23    1
    26    16    19    1
    27    17    18    1
    28    17    27    2
    29    18    30    1
    30    18    22    1
    31    20    25    1
    32    21    27    1
    33    21    12    1
    34    22    31    1
    35    22    25    1
    36    22    38    1
    37    23    34    1
    38    23    37    1
    39    23    36    1
    40    24    32    1
    41    30    33    1
    42    31    35    1
    43    32    34    1
    44    33    35    1
    45    33    40    1
    46    33    39    1
    47    41    42    1
    48    42    43    2
    49    43    44    1
    50    44    46   ar
    51    44    45   ar
    52    45    47   ar
    53    46    48   ar
    54    47    49   ar
    55    48    49   ar
    56    50    51    1
    57    51    52    2
    58    52    53    1
    59     6    54    1
    60    10    55    1
    61    12    56    1
    62    15    57    1
    63    16    58    1
    64    16    59    1
    65    18    60    1
    66    19    61    1
    67    19    62    1
    68    20    63    1
    69    20    64    1
    70    21    65    1
    71    21    66    1
    72    24    67    1
    73    24    68    1
    74    25    69    1
    75    25    70    1
    76    26    71    1
    77    26    72    1
    78    26    73    1
    79    27    74    1
    80    28    75    1
    81    28    76    1
    82    29    77    1
    83    29    78    1
    84    29    79    1
    85    30    80    1
    86    30    81    1
    87    31    82    1
    88    31    83    1
    89    32    84    1
    90    32    85    1
    91    35    86    1
    92    35    87    1
    93    36    88    1
    94    36    89    1
    95    36    90    1
    96    37    91    1
    97    37    92    1
    98    37    93    1
    99    39    94    1
   100    39    95    1
   101    39    96    1
   102    40    97    1
   103    40    98    1
   104    40    99    1
   105    42   100    1
   106    43   101    1
   107    46   102    1
   108    47   103    1
   109    49   104    1
   110    51   105    1
   111    52   106    1
@<TRIPOS>MOLECULE
11672244
 106 111 0 0 0
SMALL
GASTEIGER

@<TRIPOS>ATOM
      1 O          -3.6362   -1.6557   -5.5119 O.3     1  LIG1       -0.4607
      2 O          -6.3387    6.5691   -7.2549 O.2     1  LIG1       -0.2968
      3 O          -6.5653   -4.1400   -9.6354 O.co2   1  LIG1       -0.5492
      4 O          -7.5347   -5.0892   -7.8153 O.co2   1  LIG1       -0.5492
      5 O          -1.9550   -0.1211   -5.1444 O.2     1  LIG1       -0.2456
      6 O           0.1624   -5.9545   -1.4137 O.3     1  LIG1       -0.5067
      7 O           0.8534   -2.2644   -7.1995 O.2     1  LIG1       -0.2705
      8 O           5.0200   -2.7533   -9.9653 O.co2   1  LIG1       -0.5452
      9 O           3.8243   -1.2907  -11.2502 O.co2   1  LIG1       -0.5452
     10 N           2.2628   -3.7810   -6.1118 N.am    1  LIG1       -0.2815
     11 C          -6.6921    0.0008   -7.4032 C.3     1  LIG1       -0.0160
     12 C          -5.8924    1.0764   -8.2323 C.3     1  LIG1       -0.0256
     13 C          -5.6455   -1.1910   -6.9579 C.3     1  LIG1        0.0318
     14 C          -6.5719    2.5054   -8.4498 C.3     1  LIG1       -0.0243
     15 C          -7.0797    3.0008   -7.0490 C.3     1  LIG1       -0.0235
     16 C          -7.3551    0.6573   -6.1619 C.3     1  LIG1       -0.0461
     17 C          -4.9083   -1.7268   -8.2116 C.2     1  LIG1       -0.0596
     18 C          -4.3125   -3.1483   -8.1190 C.3     1  LIG1       -0.0080
     19 C          -8.0653    1.9809   -6.4442 C.3     1  LIG1       -0.0483
     20 C          -6.4359   -2.3213   -6.2205 C.3     1  LIG1       -0.0392
     21 C          -5.2990    0.4329   -9.5040 C.3     1  LIG1       -0.0306
     22 C          -5.3212   -4.1842   -7.5660 C.3     1  LIG1        0.0167
     23 C          -7.5531    4.4898   -6.9527 C.3     1  LIG1        0.0267
     24 C          -5.4673    3.5031   -8.9087 C.3     1  LIG1       -0.0404
     25 C          -5.7778   -3.7001   -6.1703 C.3     1  LIG1       -0.0408
     26 C          -7.8460   -0.6017   -8.2693 C.3     1  LIG1       -0.0584
     27 C          -4.7745   -0.9594   -9.3137 C.2     1  LIG1       -0.0835
     28 C          -4.5295   -0.6328   -5.9813 C.3     1  LIG1        0.1025
     29 C          -7.6757    2.4904   -9.5330 C.3     1  LIG1       -0.0590
     30 C          -3.5304   -3.6583   -9.3561 C.3     1  LIG1       -0.0405
     31 C          -4.6431   -5.5676   -7.3895 C.3     1  LIG1       -0.0412
     32 C          -5.9092    4.9590   -8.9426 C.3     1  LIG1        0.0069
     33 C          -2.8577   -5.0361   -9.1489 C.3     1  LIG1       -0.0343
     34 C          -6.5386    5.4151   -7.6482 C.2     1  LIG1        0.1392
     35 C          -3.8970   -6.0491   -8.6351 C.3     1  LIG1       -0.0470
     36 C          -8.9422    4.7684   -7.5441 C.3     1  LIG1       -0.0528
     37 C          -7.6002    4.9114   -5.4588 C.3     1  LIG1       -0.0528
     38 C          -6.5957   -4.4908   -8.4232 C.2     1  LIG1        0.0485
     39 C          -2.3006   -5.5268  -10.4991 C.3     1  LIG1       -0.0598
     40 C          -1.6685   -4.9297   -8.1707 C.3     1  LIG1       -0.0598
     41 C          -2.3705   -1.2648   -5.2251 C.2     1  LIG1        0.3320
     42 C          -1.6063   -2.4901   -4.9202 C.2     1  LIG1        0.0231
     43 C          -0.2781   -2.4702   -4.7271 C.2     1  LIG1       -0.0460
     44 C           0.4572   -3.6750   -4.3160 C.ar    1  LIG1       -0.0001
     45 C           1.6088   -4.2071   -4.9300 C.ar    1  LIG1        0.0411
     46 C          -0.0147   -4.2745   -3.1206 C.ar    1  LIG1       -0.0113
     47 C           2.2411   -5.3148   -4.3172 C.ar    1  LIG1       -0.0364
     48 C           0.6225   -5.3735   -2.5577 C.ar    1  LIG1        0.1175
     49 C           1.7540   -5.8971   -3.1467 C.ar    1  LIG1       -0.0184
     50 C           1.8937   -2.8920   -7.1016 C.2     1  LIG1        0.2411
     51 C           2.9708   -2.7974   -8.1332 C.2     1  LIG1        0.0021
     52 C           2.8556   -2.0847   -9.2634 C.2     1  LIG1       -0.0344
     53 C           4.0137   -2.0433  -10.2551 C.2     1  LIG1        0.0647
     54 H          -0.6862   -5.5388   -1.1862 H       1  LIG1        0.2921
     55 H           3.1234   -4.2726   -6.3113 H       1  LIG1        0.1551
     56 H          -5.0228    1.3282   -7.6151 H       1  LIG1        0.0315
     57 H          -6.1872    2.9665   -6.4011 H       1  LIG1        0.0315
     58 H          -6.6129    0.8717   -5.3898 H       1  LIG1        0.0271
     59 H          -8.0708   -0.0342   -5.7002 H       1  LIG1        0.0271
     60 H          -3.5282   -3.0543   -7.3613 H       1  LIG1        0.0355
     61 H          -8.9356    1.8199   -7.0862 H       1  LIG1        0.0269
     62 H          -8.4628    2.3397   -5.4902 H       1  LIG1        0.0269
     63 H          -7.4124   -2.4788   -6.6818 H       1  LIG1        0.0275
     64 H          -6.6539   -2.0042   -5.1926 H       1  LIG1        0.0275
     65 H          -6.0387    0.3783  -10.3070 H       1  LIG1        0.0310
     66 H          -4.4741    1.0518   -9.8745 H       1  LIG1        0.0310
     67 H          -5.1007    3.2336   -9.9063 H       1  LIG1        0.0275
     68 H          -4.6056    3.4289   -8.2315 H       1  LIG1        0.0275
     69 H          -6.4841   -4.4060   -5.7139 H       1  LIG1        0.0275
     70 H          -4.9271   -3.6810   -5.4803 H       1  LIG1        0.0275
     71 H          -8.4225    0.1569   -8.7917 H       1  LIG1        0.0235
     72 H          -8.5788   -1.1393   -7.6587 H       1  LIG1        0.0235
     73 H          -7.4873   -1.3002   -9.0301 H       1  LIG1        0.0235
     74 H          -4.2731   -1.3600  -10.1907 H       1  LIG1        0.0572
     75 H          -3.9439    0.1496   -6.4704 H       1  LIG1        0.0706
     76 H          -4.9787   -0.2107   -5.0798 H       1  LIG1        0.0706
     77 H          -8.6369    2.1321   -9.1641 H       1  LIG1        0.0235
     78 H          -7.4029    1.8839  -10.3987 H       1  LIG1        0.0235
     79 H          -7.8729    3.4805   -9.9471 H       1  LIG1        0.0235
     80 H          -2.7487   -2.9310   -9.6159 H       1  LIG1        0.0276
     81 H          -4.1968   -3.7099  -10.2250 H       1  LIG1        0.0276
     82 H          -5.3773   -6.3343   -7.1091 H       1  LIG1        0.0274
     83 H          -3.9370   -5.5271   -6.5502 H       1  LIG1        0.0274
     84 H          -6.6144    5.1566   -9.7545 H       1  LIG1        0.0342
     85 H          -5.0282    5.5846   -9.1298 H       1  LIG1        0.0342
     86 H          -4.6269   -6.2639   -9.4259 H       1  LIG1        0.0271
     87 H          -3.4083   -7.0052   -8.4075 H       1  LIG1        0.0271
     88 H          -8.9717    4.6659   -8.6291 H       1  LIG1        0.0239
     89 H          -9.2491    5.8016   -7.3376 H       1  LIG1        0.0239
     90 H          -9.7065    4.1132   -7.1149 H       1  LIG1        0.0239
     91 H          -6.6328    4.7463   -4.9703 H       1  LIG1        0.0239
     92 H          -8.3637    4.3649   -4.8976 H       1  LIG1        0.0239
     93 H          -7.8367    5.9764   -5.3465 H       1  LIG1        0.0239
     94 H          -3.0958   -5.6259  -11.2461 H       1  LIG1        0.0235
     95 H          -1.8178   -6.5051  -10.3955 H       1  LIG1        0.0235
     96 H          -1.5560   -4.8274  -10.8962 H       1  LIG1        0.0235
     97 H          -1.9706   -4.6099   -7.1707 H       1  LIG1        0.0235
     98 H          -0.9259   -4.2101   -8.5331 H       1  LIG1        0.0235
     99 H          -1.1640   -5.8965   -8.0601 H       1  LIG1        0.0235
    100 H          -2.1827   -3.4058   -4.8528 H       1  LIG1        0.0689
    101 H           0.2982   -1.5571   -4.8522 H       1  LIG1        0.0626
    102 H          -0.8843   -3.8527   -2.6213 H       1  LIG1        0.0660
    103 H           3.1311   -5.7551   -4.7628 H       1  LIG1        0.0637
    104 H           2.2565   -6.7526   -2.7077 H       1  LIG1        0.0655
    105 H           3.8973   -3.3311   -7.9501 H       1  LIG1        0.0670
    106 H           1.9538   -1.5282   -9.4944 H       1  LIG1        0.0637
@<TRIPOS>BOND
     1     1    41    1
     2     1    28    1
     3     2    34    2
     4     3    38   ar
     5     4    38   ar
     6     5    41    2
     7     6    48    1
     8     7    50    2
     9     8    53   ar
    10     9    53   ar
    11    10    45    1
    12    10    50   am
    13    11    16    1
    14    11    12    1
    15    11    26    1
    16    11    13    1
    17    12    14    1
    18    13    20    1
    19    13    17    1
    20    13    28    1
    21    14    15    1
    22    14    24    1
    23    14    29    1
    24    15    19    1
    25    15    23    1
    26    16    19    1
    27    17    18    1
    28    17    27    2
    29    18    30    1
    30    18    22    1
    31    20    25    1
    32    21    27    1
    33    21    12    1
    34    22    31    1
    35    22    25    1
    36    22    38    1
    37    23    34    1
    38    23    37    1
    39    23    36    1
    40    24    32    1
    41    30    33    1
    42    31    35    1
    43    32    34    1
    44    33    35    1
    45    33    40    1
    46    33    39    1
    47    41    42    1
    48    42    43    2
    49    43    44    1
    50    44    46   ar
    51    44    45   ar
    52    45    47   ar
    53    46    48   ar
    54    47    49   ar
    55    48    49   ar
    56    50    51    1
    57    51    52    2
    58    52    53    1
    59     6    54    1
    60    10    55    1
    61    12    56    1
    62    15    57    1
    63    16    58    1
    64    16    59    1
    65    18    60    1
    66    19    61    1
    67    19    62    1
    68    20    63    1
    69    20    64    1
    70    21    65    1
    71    21    66    1
    72    24    67    1
    73    24    68    1
    74    25    69    1
    75    25    70    1
    76    26    71    1
    77    26    72    1
    78    26    73    1
    79    27    74    1
    80    28    75    1
    81    28    76    1
    82    29    77    1
    83    29    78    1
    84    29    79    1
    85    30    80    1
    86    30    81    1
    87    31    82    1
    88    31    83    1
    89    32    84    1
    90    32    85    1
    91    35    86    1
    92    35    87    1
    93    36    88    1
    94    36    89    1
    95    36    90    1
    96    37    91    1
    97    37    92    1
    98    37    93    1
    99    39    94    1
   100    39    95    1
   101    39    96    1
   102    40    97    1
   103    40    98    1
   104    40    99    1
   105    42   100    1
   106    43   101    1
   107    46   102    1
   108    47   103    1
   109    49   104    1
   110    51   105    1
   111    52   106    1
@<TRIPOS>MOLECULE
11672244
 106 111 0 0 0
SMALL
GASTEIGER

@<TRIPOS>ATOM
      1 O          -4.8923   -0.0804   -4.7290 O.3     1  LIG1       -0.4607
      2 O          -6.3369    6.5951   -7.2044 O.2     1  LIG1       -0.2968
      3 O          -6.4491   -4.1298   -9.6626 O.co2   1  LIG1       -0.5492
      4 O          -7.5114   -5.0629   -7.8878 O.co2   1  LIG1       -0.5492
      5 O          -4.3211   -1.9217   -3.4637 O.2     1  LIG1       -0.2456
      6 O          -8.3102    2.3270    1.0108 O.3     1  LIG1       -0.5067
      7 O          -2.5441   -1.2347   -0.0241 O.2     1  LIG1       -0.2705
      8 O           1.7761    0.1271    2.1119 O.co2   1  LIG1       -0.5452
      9 O           2.5173   -1.4314    0.6141 O.co2   1  LIG1       -0.5452
     10 N          -2.9494    0.7659    1.1132 N.am    1  LIG1       -0.2815
     11 C          -6.7066    0.0261   -7.3742 C.3     1  LIG1       -0.0160
     12 C          -5.8797    1.1000   -8.1754 C.3     1  LIG1       -0.0256
     13 C          -5.6776   -1.1744   -6.9198 C.3     1  LIG1        0.0318
     14 C          -6.5479    2.5336   -8.4060 C.3     1  LIG1       -0.0243
     15 C          -7.0975    3.0223   -7.0207 C.3     1  LIG1       -0.0235
     16 C          -7.4263    0.6763   -6.1631 C.3     1  LIG1       -0.0461
     17 C          -4.9167   -1.7028   -8.1714 C.2     1  LIG1       -0.0596
     18 C          -4.2981   -3.1119   -8.0568 C.3     1  LIG1       -0.0080
     19 C          -8.1160    2.0068   -6.4641 C.3     1  LIG1       -0.0483
     20 C          -6.4967   -2.3078   -6.2255 C.3     1  LIG1       -0.0392
     21 C          -5.2752    0.4643   -9.4474 C.3     1  LIG1       -0.0306
     22 C          -5.3113   -4.1553   -7.5344 C.3     1  LIG1        0.0167
     23 C          -7.5583    4.5153   -6.9249 C.3     1  LIG1        0.0267
     24 C          -5.4268    3.5276   -8.8281 C.3     1  LIG1       -0.0404
     25 C          -5.8078   -3.6709   -6.1508 C.3     1  LIG1       -0.0408
     26 C          -7.8367   -0.5704   -8.2822 C.3     1  LIG1       -0.0584
     27 C          -4.7591   -0.9307   -9.2661 C.2     1  LIG1       -0.0835
     28 C          -4.5064   -0.7291   -5.9516 C.3     1  LIG1        0.1025
     29 C          -7.6197    2.5334   -9.5232 C.3     1  LIG1       -0.0590
     30 C          -3.4752   -3.6100   -9.2728 C.3     1  LIG1       -0.0405
     31 C          -4.6254   -5.5311   -7.3381 C.3     1  LIG1       -0.0412
     32 C          -5.8660    4.9833   -8.8753 C.3     1  LIG1        0.0069
     33 C          -2.8040   -4.9866   -9.0579 C.3     1  LIG1       -0.0343
     34 C          -6.5281    5.4398   -7.5982 C.2     1  LIG1        0.1392
     35 C          -3.8454   -6.0081   -8.5645 C.3     1  LIG1       -0.0470
     36 C          -8.9371    4.8077   -7.5337 C.3     1  LIG1       -0.0528
     37 C          -7.6222    4.9274   -5.4290 C.3     1  LIG1       -0.0528
     38 C          -6.5433   -4.4684   -8.4492 C.2     1  LIG1        0.0485
     39 C          -2.2227   -5.4732  -10.3998 C.3     1  LIG1       -0.0598
     40 C          -1.6341   -4.8738   -8.0584 C.3     1  LIG1       -0.0598
     41 C          -4.6731   -0.7606   -3.5747 C.2     1  LIG1        0.3320
     42 C          -4.9512    0.1605   -2.4515 C.2     1  LIG1        0.0231
     43 C          -4.8831   -0.2703   -1.1809 C.2     1  LIG1       -0.0460
     44 C          -5.2158    0.5942   -0.0401 C.ar    1  LIG1       -0.0001
     45 C          -4.3239    1.0651    0.9469 C.ar    1  LIG1        0.0411
     46 C          -6.5663    1.0169    0.0020 C.ar    1  LIG1       -0.0113
     47 C          -4.8103    1.9867    1.9024 C.ar    1  LIG1       -0.0364
     48 C          -7.0137    1.9080    0.9710 C.ar    1  LIG1        0.1175
     49 C          -6.1415    2.4033    1.9195 C.ar    1  LIG1       -0.0184
     50 C          -2.1796   -0.2742    0.6337 C.2     1  LIG1        0.2411
     51 C          -0.7698   -0.1403    1.1045 C.2     1  LIG1        0.0021
     52 C           0.2291   -0.9086    0.6458 C.2     1  LIG1       -0.0344
     53 C           1.6440   -0.7171    1.1792 C.2     1  LIG1        0.0647
     54 H          -8.7947    1.8779    0.2979 H       1  LIG1        0.2921
     55 H          -2.4667    1.3586    1.7750 H       1  LIG1        0.1551
     56 H          -5.0202    1.3309   -7.5322 H       1  LIG1        0.0315
     57 H          -6.2282    2.9712   -6.3432 H       1  LIG1        0.0315
     58 H          -6.7279    0.8916   -5.3584 H       1  LIG1        0.0271
     59 H          -8.1631   -0.0156   -5.7368 H       1  LIG1        0.0271
     60 H          -3.5399   -2.9998   -7.2699 H       1  LIG1        0.0355
     61 H          -8.9619    1.8571   -7.1404 H       1  LIG1        0.0269
     62 H          -8.5486    2.3631   -5.5244 H       1  LIG1        0.0269
     63 H          -7.4433   -2.4827   -6.7399 H       1  LIG1        0.0275
     64 H          -6.7751   -1.9987   -5.2110 H       1  LIG1        0.0275
     65 H          -6.0056    0.4186  -10.2592 H       1  LIG1        0.0310
     66 H          -4.4436    1.0825   -9.8036 H       1  LIG1        0.0310
     67 H          -5.0304    3.2594   -9.8146 H       1  LIG1        0.0275
     68 H          -4.5870    3.4500   -8.1245 H       1  LIG1        0.0275
     69 H          -6.5040   -4.3924   -5.7043 H       1  LIG1        0.0275
     70 H          -4.9646   -3.6136   -5.4520 H       1  LIG1        0.0275
     71 H          -8.3940    0.1914   -8.8201 H       1  LIG1        0.0235
     72 H          -8.5905   -1.1081   -7.6973 H       1  LIG1        0.0235
     73 H          -7.4589   -1.2685   -9.0341 H       1  LIG1        0.0235
     74 H          -4.2459   -1.3274  -10.1374 H       1  LIG1        0.0572
     75 H          -3.8482   -1.5746   -5.7248 H       1  LIG1        0.0706
     76 H          -3.8496   -0.0150   -6.4615 H       1  LIG1        0.0706
     77 H          -8.5864    2.1509   -9.1966 H       1  LIG1        0.0235
     78 H          -7.3109    1.9594  -10.3989 H       1  LIG1        0.0235
     79 H          -7.8219    3.5320   -9.9132 H       1  LIG1        0.0235
     80 H          -2.6906   -2.8760   -9.5035 H       1  LIG1        0.0276
     81 H          -4.1112   -3.6570  -10.1643 H       1  LIG1        0.0276
     82 H          -5.3603   -6.3027   -7.0737 H       1  LIG1        0.0274
     83 H          -3.9394   -5.4819   -6.4828 H       1  LIG1        0.0274
     84 H          -6.5488    5.1823   -9.7058 H       1  LIG1        0.0342
     85 H          -4.9794    5.6076   -9.0401 H       1  LIG1        0.0342
     86 H          -4.5543   -6.2336   -9.3713 H       1  LIG1        0.0271
     87 H          -3.3528   -6.9588   -8.3227 H       1  LIG1        0.0271
     88 H          -8.9577    4.6926   -8.6175 H       1  LIG1        0.0239
     89 H          -9.2311    5.8474   -7.3415 H       1  LIG1        0.0239
     90 H          -9.7154    4.1685   -7.1053 H       1  LIG1        0.0239
     91 H          -6.6587    4.7631   -4.9323 H       1  LIG1        0.0239
     92 H          -8.3880    4.3736   -4.8785 H       1  LIG1        0.0239
     93 H          -7.8636    5.9909   -5.3129 H       1  LIG1        0.0239
     94 H          -3.0063   -5.5795  -11.1582 H       1  LIG1        0.0235
     95 H          -1.7334   -6.4475  -10.2890 H       1  LIG1        0.0235
     96 H          -1.4788   -4.7677  -10.7873 H       1  LIG1        0.0235
     97 H          -1.9542   -4.5384   -7.0681 H       1  LIG1        0.0235
     98 H          -0.8812   -4.1616   -8.4153 H       1  LIG1        0.0235
     99 H          -1.1361   -5.8414   -7.9276 H       1  LIG1        0.0235
    100 H          -5.2134    1.1796   -2.7053 H       1  LIG1        0.0689
    101 H          -4.6253   -1.3018   -0.9525 H       1  LIG1        0.0626
    102 H          -7.2617    0.6426   -0.7461 H       1  LIG1        0.0660
    103 H          -4.1500    2.3807    2.6728 H       1  LIG1        0.0637
    104 H          -6.4885    3.1022    2.6739 H       1  LIG1        0.0655
    105 H          -0.5502    0.6078    1.8584 H       1  LIG1        0.0670
    106 H           0.0601   -1.6680   -0.1104 H       1  LIG1        0.0637
@<TRIPOS>BOND
     1     1    41    1
     2     1    28    1
     3     2    34    2
     4     3    38   ar
     5     4    38   ar
     6     5    41    2
     7     6    48    1
     8     7    50    2
     9     8    53   ar
    10     9    53   ar
    11    10    45    1
    12    10    50   am
    13    11    16    1
    14    11    12    1
    15    11    26    1
    16    11    13    1
    17    12    14    1
    18    13    20    1
    19    13    17    1
    20    13    28    1
    21    14    15    1
    22    14    24    1
    23    14    29    1
    24    15    19    1
    25    15    23    1
    26    16    19    1
    27    17    18    1
    28    17    27    2
    29    18    30    1
    30    18    22    1
    31    20    25    1
    32    21    27    1
    33    21    12    1
    34    22    31    1
    35    22    25    1
    36    22    38    1
    37    23    34    1
    38    23    37    1
    39    23    36    1
    40    24    32    1
    41    30    33    1
    42    31    35    1
    43    32    34    1
    44    33    35    1
    45    33    40    1
    46    33    39    1
    47    41    42    1
    48    42    43    2
    49    43    44    1
    50    44    46   ar
    51    44    45   ar
    52    45    47   ar
    53    46    48   ar
    54    47    49   ar
    55    48    49   ar
    56    50    51    1
    57    51    52    2
    58    52    53    1
    59     6    54    1
    60    10    55    1
    61    12    56    1
    62    15    57    1
    63    16    58    1
    64    16    59    1
    65    18    60    1
    66    19    61    1
    67    19    62    1
    68    20    63    1
    69    20    64    1
    70    21    65    1
    71    21    66    1
    72    24    67    1
    73    24    68    1
    74    25    69    1
    75    25    70    1
    76    26    71    1
    77    26    72    1
    78    26    73    1
    79    27    74    1
    80    28    75    1
    81    28    76    1
    82    29    77    1
    83    29    78    1
    84    29    79    1
    85    30    80    1
    86    30    81    1
    87    31    82    1
    88    31    83    1
    89    32    84    1
    90    32    85    1
    91    35    86    1
    92    35    87    1
    93    36    88    1
    94    36    89    1
    95    36    90    1
    96    37    91    1
    97    37    92    1
    98    37    93    1
    99    39    94    1
   100    39    95    1
   101    39    96    1
   102    40    97    1
   103    40    98    1
   104    40    99    1
   105    42   100    1
   106    43   101    1
   107    46   102    1
   108    47   103    1
   109    49   104    1
   110    51   105    1
   111    52   106    1
@<TRIPOS>MOLECULE
11672244
 106 111 0 0 0
SMALL
GASTEIGER

@<TRIPOS>ATOM
      1 O          -5.1426   -0.2807   -4.6502 O.3     1  LIG1       -0.4607
      2 O          -6.3595    6.6092   -7.2536 O.2     1  LIG1       -0.2968
      3 O          -6.4143   -4.1377   -9.6986 O.co2   1  LIG1       -0.5492
      4 O          -7.4887   -5.1070   -7.9501 O.co2   1  LIG1       -0.5492
      5 O          -4.0425   -1.9183   -3.4562 O.2     1  LIG1       -0.2456
      6 O         -10.0910   -0.2103    0.2416 O.3     1  LIG1       -0.5067
      7 O          -3.2131   -0.7766    0.1847 O.2     1  LIG1       -0.2705
      8 O          -0.4497    1.4824    3.7002 O.co2   1  LIG1       -0.5452
      9 O           1.1684    0.7926    2.2413 O.co2   1  LIG1       -0.5452
     10 N          -4.6959    0.3793    1.5774 N.am    1  LIG1       -0.2815
     11 C          -6.7450    0.0315   -7.4131 C.3     1  LIG1       -0.0160
     12 C          -5.9031    1.1023   -8.2059 C.3     1  LIG1       -0.0256
     13 C          -5.7301   -1.1793   -6.9447 C.3     1  LIG1        0.0318
     14 C          -6.5616    2.5407   -8.4440 C.3     1  LIG1       -0.0243
     15 C          -7.1239    3.0321   -7.0652 C.3     1  LIG1       -0.0235
     16 C          -7.4663    0.6940   -6.2098 C.3     1  LIG1       -0.0461
     17 C          -4.9264   -1.6939   -8.1739 C.2     1  LIG1       -0.0596
     18 C          -4.3005   -3.1015   -8.0494 C.3     1  LIG1       -0.0080
     19 C          -8.1547    2.0214   -6.5226 C.3     1  LIG1       -0.0483
     20 C          -6.5725   -2.3269   -6.2991 C.3     1  LIG1       -0.0392
     21 C          -5.2867    0.4633   -9.4685 C.3     1  LIG1       -0.0306
     22 C          -5.3156   -4.1558   -7.5495 C.3     1  LIG1        0.0167
     23 C          -7.5748    4.5273   -6.9677 C.3     1  LIG1        0.0267
     24 C          -5.4318    3.5303   -8.8525 C.3     1  LIG1       -0.0404
     25 C          -5.8579   -3.6733   -6.1832 C.3     1  LIG1       -0.0408
     26 C          -7.8673   -0.5591   -8.3309 C.3     1  LIG1       -0.0584
     27 C          -4.7557   -0.9231   -9.2674 C.2     1  LIG1       -0.0835
     28 C          -4.6186   -0.7379   -5.9084 C.3     1  LIG1        0.1025
     29 C          -7.6198    2.5458   -9.5732 C.3     1  LIG1       -0.0590
     30 C          -3.4539   -3.5939   -9.2523 C.3     1  LIG1       -0.0405
     31 C          -4.6184   -5.5220   -7.3333 C.3     1  LIG1       -0.0412
     32 C          -5.8663    4.9871   -8.9069 C.3     1  LIG1        0.0069
     33 C          -2.7807   -4.9694   -9.0324 C.3     1  LIG1       -0.0343
     34 C          -6.5417    5.4496   -7.6390 C.2     1  LIG1        0.1392
     35 C          -3.8206   -5.9971   -8.5487 C.3     1  LIG1       -0.0470
     36 C          -8.9530    4.8260   -7.5742 C.3     1  LIG1       -0.0528
     37 C          -7.6340    4.9368   -5.4705 C.3     1  LIG1       -0.0528
     38 C          -6.5234   -4.4885   -8.4903 C.2     1  LIG1        0.0485
     39 C          -2.1857   -5.4529  -10.3696 C.3     1  LIG1       -0.0598
     40 C          -1.6208   -4.8534   -8.0220 C.3     1  LIG1       -0.0598
     41 C          -4.7818   -0.9535   -3.5299 C.2     1  LIG1        0.3320
     42 C          -5.5320   -0.3484   -2.4095 C.2     1  LIG1        0.0231
     43 C          -5.5496   -0.9265   -1.1985 C.2     1  LIG1       -0.0460
     44 C          -6.4156   -0.4293   -0.1233 C.ar    1  LIG1       -0.0001
     45 C          -6.0086    0.1580    1.0915 C.ar    1  LIG1        0.0411
     46 C          -7.8009   -0.5596   -0.3926 C.ar    1  LIG1       -0.0113
     47 C          -7.0124    0.6267    1.9714 C.ar    1  LIG1       -0.0364
     48 C          -8.7580   -0.0957    0.5012 C.ar    1  LIG1        0.1175
     49 C          -8.3725    0.5030    1.6830 C.ar    1  LIG1       -0.0184
     50 C          -3.4622   -0.0444    1.1280 C.2     1  LIG1        0.2411
     51 C          -2.3772    0.4914    2.0024 C.2     1  LIG1        0.0021
     52 C          -1.0749    0.3502    1.7147 C.2     1  LIG1       -0.0344
     53 C          -0.0186    0.9314    2.6466 C.2     1  LIG1        0.0647
     54 H         -10.1954   -0.6717   -0.6080 H       1  LIG1        0.2921
     55 H          -4.6541    0.9144    2.4342 H       1  LIG1        0.1551
     56 H          -5.0490    1.3303   -7.5552 H       1  LIG1        0.0315
     57 H          -6.2616    2.9746   -6.3793 H       1  LIG1        0.0315
     58 H          -6.7623    0.9285   -5.4147 H       1  LIG1        0.0271
     59 H          -8.1990    0.0054   -5.7719 H       1  LIG1        0.0271
     60 H          -3.5577   -2.9869   -7.2484 H       1  LIG1        0.0355
     61 H          -8.9910    1.8712   -7.2103 H       1  LIG1        0.0269
     62 H          -8.5991    2.3804   -5.5894 H       1  LIG1        0.0269
     63 H          -7.4822   -2.5192   -6.8706 H       1  LIG1        0.0275
     64 H          -6.9193   -2.0276   -5.3030 H       1  LIG1        0.0275
     65 H          -6.0132    0.4030  -10.2833 H       1  LIG1        0.0310
     66 H          -4.4595    1.0862   -9.8262 H       1  LIG1        0.0310
     67 H          -5.0241    3.2602   -9.8338 H       1  LIG1        0.0275
     68 H          -4.6012    3.4505   -8.1384 H       1  LIG1        0.0275
     69 H          -6.5521   -4.4046   -5.7500 H       1  LIG1        0.0275
     70 H          -5.0368   -3.5907   -5.4606 H       1  LIG1        0.0275
     71 H          -8.4080    0.2020   -8.8857 H       1  LIG1        0.0235
     72 H          -8.6346   -1.0820   -7.7498 H       1  LIG1        0.0235
     73 H          -7.4840   -1.2688   -9.0694 H       1  LIG1        0.0235
     74 H          -4.2190   -1.3160  -10.1263 H       1  LIG1        0.0572
     75 H          -3.9004   -1.5463   -5.7409 H       1  LIG1        0.0706
     76 H          -4.0185    0.0856   -6.3076 H       1  LIG1        0.0706
     77 H          -8.5881    2.1546   -9.2624 H       1  LIG1        0.0235
     78 H          -7.2953    1.9819  -10.4501 H       1  LIG1        0.0235
     79 H          -7.8245    3.5473   -9.9543 H       1  LIG1        0.0235
     80 H          -2.6684   -2.8561   -9.4674 H       1  LIG1        0.0276
     81 H          -4.0744   -3.6399  -10.1547 H       1  LIG1        0.0276
     82 H          -5.3482   -6.2998   -7.0727 H       1  LIG1        0.0274
     83 H          -3.9438   -5.4590   -6.4700 H       1  LIG1        0.0274
     84 H          -6.5391    5.1863   -9.7454 H       1  LIG1        0.0342
     85 H          -4.9761    5.6083   -9.0628 H       1  LIG1        0.0342
     86 H          -4.5178   -6.2302   -9.3636 H       1  LIG1        0.0271
     87 H          -3.3246   -6.9438   -8.2986 H       1  LIG1        0.0271
     88 H          -8.9782    4.6979   -8.6566 H       1  LIG1        0.0239
     89 H          -9.2370    5.8701   -7.3916 H       1  LIG1        0.0239
     90 H          -9.7353    4.1983   -7.1360 H       1  LIG1        0.0239
     91 H          -6.6682    4.7734   -4.9778 H       1  LIG1        0.0239
     92 H          -8.3960    4.3801   -4.9175 H       1  LIG1        0.0239
     93 H          -7.8767    5.9996   -5.3514 H       1  LIG1        0.0239
     94 H          -2.9623   -5.5599  -11.1354 H       1  LIG1        0.0235
     95 H          -1.6958   -6.4266  -10.2558 H       1  LIG1        0.0235
     96 H          -1.4399   -4.7454  -10.7495 H       1  LIG1        0.0235
     97 H          -1.9516   -4.5162   -7.0358 H       1  LIG1        0.0235
     98 H          -0.8650   -4.1413   -8.3729 H       1  LIG1        0.0235
     99 H          -1.1233   -5.8204   -7.8846 H       1  LIG1        0.0235
    100 H          -6.1062    0.5424   -2.6314 H       1  LIG1        0.0689
    101 H          -4.9751   -1.8264   -0.9900 H       1  LIG1        0.0626
    102 H          -8.1182   -1.0298   -1.3215 H       1  LIG1        0.0660
    103 H          -6.7418    1.0931    2.9168 H       1  LIG1        0.0637
    104 H          -9.1183    0.8673    2.3823 H       1  LIG1        0.0655
    105 H          -2.6586    1.0164    2.9087 H       1  LIG1        0.0670
    106 H          -0.7446   -0.1653    0.8189 H       1  LIG1        0.0637
@<TRIPOS>BOND
     1     1    41    1
     2     1    28    1
     3     2    34    2
     4     3    38   ar
     5     4    38   ar
     6     5    41    2
     7     6    48    1
     8     7    50    2
     9     8    53   ar
    10     9    53   ar
    11    10    45    1
    12    10    50   am
    13    11    16    1
    14    11    12    1
    15    11    26    1
    16    11    13    1
    17    12    14    1
    18    13    20    1
    19    13    17    1
    20    13    28    1
    21    14    15    1
    22    14    24    1
    23    14    29    1
    24    15    19    1
    25    15    23    1
    26    16    19    1
    27    17    18    1
    28    17    27    2
    29    18    30    1
    30    18    22    1
    31    20    25    1
    32    21    27    1
    33    21    12    1
    34    22    31    1
    35    22    25    1
    36    22    38    1
    37    23    34    1
    38    23    37    1
    39    23    36    1
    40    24    32    1
    41    30    33    1
    42    31    35    1
    43    32    34    1
    44    33    35    1
    45    33    40    1
    46    33    39    1
    47    41    42    1
    48    42    43    2
    49    43    44    1
    50    44    46   ar
    51    44    45   ar
    52    45    47   ar
    53    46    48   ar
    54    47    49   ar
    55    48    49   ar
    56    50    51    1
    57    51    52    2
    58    52    53    1
    59     6    54    1
    60    10    55    1
    61    12    56    1
    62    15    57    1
    63    16    58    1
    64    16    59    1
    65    18    60    1
    66    19    61    1
    67    19    62    1
    68    20    63    1
    69    20    64    1
    70    21    65    1
    71    21    66    1
    72    24    67    1
    73    24    68    1
    74    25    69    1
    75    25    70    1
    76    26    71    1
    77    26    72    1
    78    26    73    1
    79    27    74    1
    80    28    75    1
    81    28    76    1
    82    29    77    1
    83    29    78    1
    84    29    79    1
    85    30    80    1
    86    30    81    1
    87    31    82    1
    88    31    83    1
    89    32    84    1
    90    32    85    1
    91    35    86    1
    92    35    87    1
    93    36    88    1
    94    36    89    1
    95    36    90    1
    96    37    91    1
    97    37    92    1
    98    37    93    1
    99    39    94    1
   100    39    95    1
   101    39    96    1
   102    40    97    1
   103    40    98    1
   104    40    99    1
   105    42   100    1
   106    43   101    1
   107    46   102    1
   108    47   103    1
   109    49   104    1
   110    51   105    1
   111    52   106    1
@<TRIPOS>MOLECULE
11672244
 106 111 0 0 0
SMALL
GASTEIGER

@<TRIPOS>ATOM
      1 O          -3.7571    0.0879   -6.1443 O.3     1  LIG1       -0.4607
      2 O          -6.2033    6.5571   -7.3240 O.2     1  LIG1       -0.2968
      3 O          -6.5153   -4.2474   -9.8250 O.co2   1  LIG1       -0.5492
      4 O          -7.5326   -5.3228   -8.1049 O.co2   1  LIG1       -0.5492
      5 O          -2.1064   -1.3841   -6.8261 O.2     1  LIG1       -0.2456
      6 O           0.2104    6.3185   -6.5164 O.3     1  LIG1       -0.5067
      7 O           1.6920    0.0727   -2.7035 O.2     1  LIG1       -0.2705
      8 O          -1.7578    3.1513   -0.7244 O.co2   1  LIG1       -0.5452
      9 O          -0.4193    2.7149    1.0767 O.co2   1  LIG1       -0.5452
     10 N           0.9711    1.1944   -4.5132 N.am    1  LIG1       -0.2815
     11 C          -6.7042   -0.0196   -7.3961 C.3     1  LIG1       -0.0160
     12 C          -5.8888    1.0202   -8.2496 C.3     1  LIG1       -0.0256
     13 C          -5.7467   -1.2981   -7.0158 C.3     1  LIG1        0.0318
     14 C          -6.5296    2.4758   -8.4460 C.3     1  LIG1       -0.0243
     15 C          -6.9764    2.9998   -7.0334 C.3     1  LIG1       -0.0235
     16 C          -7.2460    0.6670   -6.1163 C.3     1  LIG1       -0.0461
     17 C          -4.9999   -1.8082   -8.2701 C.2     1  LIG1       -0.0596
     18 C          -4.3911   -3.2258   -8.1687 C.3     1  LIG1       -0.0080
     19 C          -7.9451    2.0032   -6.3662 C.3     1  LIG1       -0.0483
     20 C          -6.6454   -2.4534   -6.4390 C.3     1  LIG1       -0.0392
     21 C          -5.3760    0.3586   -9.5457 C.3     1  LIG1       -0.0306
     22 C          -5.4018   -4.2923   -7.6837 C.3     1  LIG1        0.0167
     23 C          -7.4348    4.4960   -6.9507 C.3     1  LIG1        0.0267
     24 C          -5.4107    3.4390   -8.9407 C.3     1  LIG1       -0.0404
     25 C          -5.9713   -3.8220   -6.3247 C.3     1  LIG1       -0.0408
     26 C          -7.9395   -0.5222   -8.2120 C.3     1  LIG1       -0.0584
     27 C          -4.8661   -1.0390   -9.3693 C.2     1  LIG1       -0.0835
     28 C          -4.6734   -0.9944   -5.8917 C.3     1  LIG1        0.1025
     29 C          -7.6710    2.4997   -9.4919 C.3     1  LIG1       -0.0590
     30 C          -3.5362   -3.7004   -9.3707 C.3     1  LIG1       -0.0405
     31 C          -4.6803   -5.6453   -7.4560 C.3     1  LIG1       -0.0412
     32 C          -5.8153    4.9064   -8.9764 C.3     1  LIG1        0.0069
     33 C          -2.8375   -5.0617   -9.1430 C.3     1  LIG1       -0.0343
     34 C          -6.4220    5.3951   -7.6823 C.2     1  LIG1        0.1392
     35 C          -3.8613   -6.1079   -8.6623 C.3     1  LIG1       -0.0470
     36 C          -8.8324    4.7821   -7.5209 C.3     1  LIG1       -0.0528
     37 C          -7.4520    4.9430   -5.4645 C.3     1  LIG1       -0.0528
     38 C          -6.5989   -4.6439   -8.6295 C.2     1  LIG1        0.0485
     39 C          -2.2257   -5.5374  -10.4750 C.3     1  LIG1       -0.0598
     40 C          -1.6847   -4.9190   -8.1271 C.3     1  LIG1       -0.0598
     41 C          -2.5066   -0.2692   -6.5253 C.2     1  LIG1        0.3320
     42 C          -1.5692    0.8658   -6.5187 C.2     1  LIG1        0.0231
     43 C          -1.6402    1.8926   -5.6595 C.2     1  LIG1       -0.0460
     44 C          -0.5268    2.8480   -5.5612 C.ar    1  LIG1       -0.0001
     45 C           0.7302    2.4888   -5.0287 C.ar    1  LIG1        0.0411
     46 C          -0.7081    4.1453   -6.0577 C.ar    1  LIG1       -0.0113
     47 C           1.7958    3.3953   -5.0497 C.ar    1  LIG1       -0.0364
     48 C           0.3562    5.0467   -6.0431 C.ar    1  LIG1        0.1175
     49 C           1.6045    4.6798   -5.5541 C.ar    1  LIG1       -0.0184
     50 C           0.9328    0.9251   -3.1600 C.2     1  LIG1        0.2411
     51 C          -0.0087    1.7021   -2.3189 C.2     1  LIG1        0.0021
     52 C           0.1680    1.7952   -0.9930 C.2     1  LIG1       -0.0344
     53 C          -0.7701    2.6317   -0.1344 C.2     1  LIG1        0.0647
     54 H          -0.7398    6.4884   -6.6271 H       1  LIG1        0.2921
     55 H           1.8265    0.7602   -4.8419 H       1  LIG1        0.1551
     56 H          -4.9873    1.2307   -7.6658 H       1  LIG1        0.0315
     57 H          -6.0589    2.9686   -6.4213 H       1  LIG1        0.0315
     58 H          -6.4294    0.8729   -5.4177 H       1  LIG1        0.0271
     59 H          -7.9388    0.0011   -5.5881 H       1  LIG1        0.0271
     60 H          -3.6605   -3.1372   -7.3578 H       1  LIG1        0.0355
     61 H          -8.8537    1.8576   -6.9571 H       1  LIG1        0.0269
     62 H          -8.2783    2.3750   -5.3929 H       1  LIG1        0.0269
     63 H          -7.5303   -2.6170   -7.0568 H       1  LIG1        0.0275
     64 H          -7.0211   -2.1689   -5.4482 H       1  LIG1        0.0275
     65 H          -6.1531    0.3121  -10.3127 H       1  LIG1        0.0310
     66 H          -4.5585    0.9593   -9.9600 H       1  LIG1        0.0310
     67 H          -5.0769    3.1531   -9.9451 H       1  LIG1        0.0275
     68 H          -4.5347    3.3461   -8.2844 H       1  LIG1        0.0275
     69 H          -6.6997   -4.5394   -5.9259 H       1  LIG1        0.0275
     70 H          -5.1748   -3.7810   -5.5719 H       1  LIG1        0.0275
     71 H          -8.4887    0.2751   -8.7017 H       1  LIG1        0.0235
     72 H          -8.6790   -1.0083   -7.5659 H       1  LIG1        0.0235
     73 H          -7.6630   -1.2350   -8.9950 H       1  LIG1        0.0235
     74 H          -4.3694   -1.4413  -10.2477 H       1  LIG1        0.0572
     75 H          -5.1861   -0.7354   -4.9586 H       1  LIG1        0.0706
     76 H          -4.1055   -1.8921   -5.6248 H       1  LIG1        0.0706
     77 H          -8.6432    2.2417   -9.0697 H       1  LIG1        0.0235
     78 H          -7.4848    1.8328  -10.3353 H       1  LIG1        0.0235
     79 H          -7.8058    3.4810   -9.9502 H       1  LIG1        0.0235
     80 H          -2.7654   -2.9481   -9.5879 H       1  LIG1        0.0276
     81 H          -4.1570   -3.7625  -10.2718 H       1  LIG1        0.0276
     82 H          -5.3958   -6.4367   -7.1976 H       1  LIG1        0.0274
     83 H          -4.0138   -5.5658   -6.5875 H       1  LIG1        0.0274
     84 H          -6.5216    5.1184   -9.7840 H       1  LIG1        0.0342
     85 H          -4.9198    5.5069   -9.1772 H       1  LIG1        0.0342
     86 H          -4.5476   -6.3575   -9.4815 H       1  LIG1        0.0271
     87 H          -3.3481   -7.0431   -8.4038 H       1  LIG1        0.0271
     88 H          -8.8754    4.6994   -8.6075 H       1  LIG1        0.0239
     89 H          -9.1390    5.8113   -7.2946 H       1  LIG1        0.0239
     90 H          -9.5912    4.1195   -7.0932 H       1  LIG1        0.0239
     91 H          -6.4830    4.7626   -4.9852 H       1  LIG1        0.0239
     92 H          -8.2224    4.4249   -4.8858 H       1  LIG1        0.0239
     93 H          -7.6623    6.0150   -5.3672 H       1  LIG1        0.0239
     94 H          -2.9958   -5.6644  -11.2440 H       1  LIG1        0.0235
     95 H          -1.7153   -6.4997  -10.3543 H       1  LIG1        0.0235
     96 H          -1.4934   -4.8155  -10.8539 H       1  LIG1        0.0235
     97 H          -2.0269   -4.5967   -7.1399 H       1  LIG1        0.0235
     98 H          -0.9479   -4.1841   -8.4717 H       1  LIG1        0.0235
     99 H          -1.1609   -5.8723   -7.9926 H       1  LIG1        0.0235
    100 H          -0.7081    0.7239   -7.1630 H       1  LIG1        0.0689
    101 H          -2.4554    2.0103   -4.9511 H       1  LIG1        0.0626
    102 H          -1.6727    4.4353   -6.4632 H       1  LIG1        0.0660
    103 H           2.7644    3.1189   -4.6416 H       1  LIG1        0.0637
    104 H           2.4201    5.3965   -5.5465 H       1  LIG1        0.0655
    105 H          -0.8399    2.2033   -2.7953 H       1  LIG1        0.0670
    106 H           0.9951    1.3009   -0.4951 H       1  LIG1        0.0637
@<TRIPOS>BOND
     1     1    41    1
     2     1    28    1
     3     2    34    2
     4     3    38   ar
     5     4    38   ar
     6     5    41    2
     7     6    48    1
     8     7    50    2
     9     8    53   ar
    10     9    53   ar
    11    10    45    1
    12    10    50   am
    13    11    16    1
    14    11    12    1
    15    11    26    1
    16    11    13    1
    17    12    14    1
    18    13    20    1
    19    13    17    1
    20    13    28    1
    21    14    15    1
    22    14    24    1
    23    14    29    1
    24    15    19    1
    25    15    23    1
    26    16    19    1
    27    17    18    1
    28    17    27    2
    29    18    30    1
    30    18    22    1
    31    20    25    1
    32    21    27    1
    33    21    12    1
    34    22    31    1
    35    22    25    1
    36    22    38    1
    37    23    34    1
    38    23    37    1
    39    23    36    1
    40    24    32    1
    41    30    33    1
    42    31    35    1
    43    32    34    1
    44    33    35    1
    45    33    40    1
    46    33    39    1
    47    41    42    1
    48    42    43    2
    49    43    44    1
    50    44    46   ar
    51    44    45   ar
    52    45    47   ar
    53    46    48   ar
    54    47    49   ar
    55    48    49   ar
    56    50    51    1
    57    51    52    2
    58    52    53    1
    59     6    54    1
    60    10    55    1
    61    12    56    1
    62    15    57    1
    63    16    58    1
    64    16    59    1
    65    18    60    1
    66    19    61    1
    67    19    62    1
    68    20    63    1
    69    20    64    1
    70    21    65    1
    71    21    66    1
    72    24    67    1
    73    24    68    1
    74    25    69    1
    75    25    70    1
    76    26    71    1
    77    26    72    1
    78    26    73    1
    79    27    74    1
    80    28    75    1
    81    28    76    1
    82    29    77    1
    83    29    78    1
    84    29    79    1
    85    30    80    1
    86    30    81    1
    87    31    82    1
    88    31    83    1
    89    32    84    1
    90    32    85    1
    91    35    86    1
    92    35    87    1
    93    36    88    1
    94    36    89    1
    95    36    90    1
    96    37    91    1
    97    37    92    1
    98    37    93    1
    99    39    94    1
   100    39    95    1
   101    39    96    1
   102    40    97    1
   103    40    98    1
   104    40    99    1
   105    42   100    1
   106    43   101    1
   107    46   102    1
   108    47   103    1
   109    49   104    1
   110    51   105    1
   111    52   106    1
@<TRIPOS>MOLECULE
11672244
 106 111 0 0 0
SMALL
GASTEIGER

@<TRIPOS>ATOM
      1 O          -3.8199   -0.0203   -6.0830 O.3     1  LIG1       -0.4607
      2 O          -6.2885    6.5818   -7.2144 O.2     1  LIG1       -0.2968
      3 O          -6.6329   -4.0096   -9.6453 O.co2   1  LIG1       -0.5492
      4 O          -7.3966   -5.4722   -8.0866 O.co2   1  LIG1       -0.5492
      5 O          -4.5691    1.6705   -4.7069 O.2     1  LIG1       -0.2456
      6 O           1.7497    2.7669   -2.0620 O.3     1  LIG1       -0.5067
      7 O           2.8859   -2.1000   -6.0499 O.2     1  LIG1       -0.2705
      8 O           1.6828   -3.0574  -10.7701 O.co2   1  LIG1       -0.5452
      9 O           2.6659   -5.0201  -10.1251 O.co2   1  LIG1       -0.5452
     10 N           1.1016   -0.6601   -6.4292 N.am    1  LIG1       -0.2815
     11 C          -6.8584    0.0272   -7.4406 C.3     1  LIG1       -0.0160
     12 C          -5.9841    1.0829   -8.2116 C.3     1  LIG1       -0.0256
     13 C          -5.9014   -1.2244   -6.9780 C.3     1  LIG1        0.0318
     14 C          -6.6079    2.5359   -8.4411 C.3     1  LIG1       -0.0243
     15 C          -7.1497    3.0347   -7.0555 C.3     1  LIG1       -0.0235
     16 C          -7.5534    0.6859   -6.2195 C.3     1  LIG1       -0.0461
     17 C          -5.0405   -1.7173   -8.1660 C.2     1  LIG1       -0.0596
     18 C          -4.4118   -3.1216   -8.0292 C.3     1  LIG1       -0.0080
     19 C          -8.1934    2.0450   -6.4991 C.3     1  LIG1       -0.0483
     20 C          -6.8060   -2.3937   -6.4484 C.3     1  LIG1       -0.0392
     21 C          -5.3615    0.4429   -9.4682 C.3     1  LIG1       -0.0306
     22 C          -5.4161   -4.2093   -7.5683 C.3     1  LIG1        0.0167
     23 C          -7.5743    4.5381   -6.9600 C.3     1  LIG1        0.0267
     24 C          -5.4579    3.5009   -8.8540 C.3     1  LIG1       -0.0404
     25 C          -6.0946   -3.7384   -6.2622 C.3     1  LIG1       -0.0408
     26 C          -7.9965   -0.5035   -8.3720 C.3     1  LIG1       -0.0584
     27 C          -4.8369   -0.9421   -9.2511 C.2     1  LIG1       -0.0835
     28 C          -4.9297   -0.8830   -5.7825 C.3     1  LIG1        0.1025
     29 C          -7.6741    2.5674   -9.5626 C.3     1  LIG1       -0.0590
     30 C          -3.5499   -3.6050   -9.2267 C.3     1  LIG1       -0.0405
     31 C          -4.6500   -5.5243   -7.2773 C.3     1  LIG1       -0.0412
     32 C          -5.8558    4.9688   -8.8947 C.3     1  LIG1        0.0069
     33 C          -2.8311   -4.9547   -8.9931 C.3     1  LIG1       -0.0343
     34 C          -6.5120    5.4358   -7.6187 C.2     1  LIG1        0.1392
     35 C          -3.8273   -6.0082   -8.4730 C.3     1  LIG1       -0.0470
     36 C          -8.9371    4.8648   -7.5868 C.3     1  LIG1       -0.0528
     37 C          -7.6461    4.9505   -5.4648 C.3     1  LIG1       -0.0528
     38 C          -6.5870   -4.6036   -8.5338 C.2     1  LIG1        0.0485
     39 C          -2.2403   -5.4427  -10.3312 C.3     1  LIG1       -0.0598
     40 C          -1.6593   -4.7781   -8.0060 C.3     1  LIG1       -0.0598
     41 C          -3.6889    1.0856   -5.3242 C.2     1  LIG1        0.3320
     42 C          -2.2775    1.5048   -5.2131 C.2     1  LIG1        0.0231
     43 C          -1.2670    0.6184   -5.2471 C.2     1  LIG1       -0.0460
     44 C           0.1167    0.9103   -4.8079 C.ar    1  LIG1       -0.0001
     45 C           1.2354    0.2100   -5.3165 C.ar    1  LIG1        0.0411
     46 C           0.3016    1.7708   -3.7024 C.ar    1  LIG1       -0.0113
     47 C           2.4966    0.4262   -4.7336 C.ar    1  LIG1       -0.0364
     48 C           1.5621    1.9545   -3.1414 C.ar    1  LIG1        0.1175
     49 C           2.6615    1.2934   -3.6538 C.ar    1  LIG1       -0.0184
     50 C           1.9888   -1.6678   -6.7664 C.2     1  LIG1        0.2411
     51 C           1.7405   -2.2120   -8.1243 C.2     1  LIG1        0.0021
     52 C           2.3022   -3.3676   -8.5094 C.2     1  LIG1       -0.0344
     53 C           2.1892   -3.8649   -9.9423 C.2     1  LIG1        0.0647
     54 H           0.8813    3.0773   -1.7588 H       1  LIG1        0.2921
     55 H           0.2618   -0.5864   -6.9903 H       1  LIG1        0.1551
     56 H          -5.1343    1.2852   -7.5534 H       1  LIG1        0.0315
     57 H          -6.2843    2.9636   -6.3768 H       1  LIG1        0.0315
     58 H          -6.8421    0.8523   -5.4105 H       1  LIG1        0.0271
     59 H          -8.3170    0.0159   -5.8057 H       1  LIG1        0.0271
     60 H          -3.6906   -2.9962   -7.2084 H       1  LIG1        0.0355
     61 H          -9.0501    1.9322   -7.1688 H       1  LIG1        0.0269
     62 H          -8.6039    2.4050   -5.5509 H       1  LIG1        0.0269
     63 H          -7.6411   -2.5891   -7.1237 H       1  LIG1        0.0275
     64 H          -7.2573   -2.1066   -5.4903 H       1  LIG1        0.0275
     65 H          -6.0776    0.3859  -10.2922 H       1  LIG1        0.0310
     66 H          -4.5261    1.0602   -9.8169 H       1  LIG1        0.0310
     67 H          -5.0667    3.2285   -9.8413 H       1  LIG1        0.0275
     68 H          -4.6228    3.3955   -8.1484 H       1  LIG1        0.0275
     69 H          -6.8281   -4.4718   -5.9033 H       1  LIG1        0.0275
     70 H          -5.3555   -3.6692   -5.4559 H       1  LIG1        0.0275
     71 H          -8.5288    0.2874   -8.8914 H       1  LIG1        0.0235
     72 H          -8.7711   -1.0311   -7.8048 H       1  LIG1        0.0235
     73 H          -7.6275   -1.1904   -9.1392 H       1  LIG1        0.0235
     74 H          -4.2647   -1.3260  -10.0914 H       1  LIG1        0.0572
     75 H          -5.4834   -0.5438   -4.9008 H       1  LIG1        0.0706
     76 H          -4.4383   -1.7968   -5.4355 H       1  LIG1        0.0706
     77 H          -8.6651    2.2647   -9.2235 H       1  LIG1        0.0235
     78 H          -7.4046    1.9380  -10.4129 H       1  LIG1        0.0235
     79 H          -7.8083    3.5621   -9.9910 H       1  LIG1        0.0235
     80 H          -2.7868   -2.8492   -9.4578 H       1  LIG1        0.0276
     81 H          -4.1785   -3.6861  -10.1219 H       1  LIG1        0.0276
     82 H          -5.3334   -6.3284   -6.9768 H       1  LIG1        0.0274
     83 H          -3.9819   -5.3793   -6.4186 H       1  LIG1        0.0274
     84 H          -6.5287    5.1925   -9.7271 H       1  LIG1        0.0342
     85 H          -4.9516    5.5694   -9.0512 H       1  LIG1        0.0342
     86 H          -4.5133   -6.2976   -9.2795 H       1  LIG1        0.0271
     87 H          -3.2918   -6.9234   -8.1897 H       1  LIG1        0.0271
     88 H          -8.9448    4.7504   -8.6711 H       1  LIG1        0.0239
     89 H          -9.2089    5.9109   -7.3972 H       1  LIG1        0.0239
     90 H          -9.7360    4.2438   -7.1696 H       1  LIG1        0.0239
     91 H          -6.6935    4.7609   -4.9563 H       1  LIG1        0.0239
     92 H          -8.4333    4.4173   -4.9243 H       1  LIG1        0.0239
     93 H          -7.8613    6.0199   -5.3508 H       1  LIG1        0.0239
     94 H          -3.0247   -5.5900  -11.0823 H       1  LIG1        0.0235
     95 H          -1.7160   -6.3972  -10.2080 H       1  LIG1        0.0235
     96 H          -1.5249   -4.7179  -10.7363 H       1  LIG1        0.0235
     97 H          -1.9860   -4.4386   -7.0194 H       1  LIG1        0.0235
     98 H          -0.9405   -4.0416   -8.3824 H       1  LIG1        0.0235
     99 H          -1.1195   -5.7215   -7.8648 H       1  LIG1        0.0235
    100 H          -2.1450    2.5384   -4.9186 H       1  LIG1        0.0689
    101 H          -1.4620   -0.4254   -5.4900 H       1  LIG1        0.0626
    102 H          -0.5512    2.2684   -3.2510 H       1  LIG1        0.0660
    103 H           3.3846   -0.0671   -5.1210 H       1  LIG1        0.0637
    104 H           3.6450    1.4330   -3.2163 H       1  LIG1        0.0655
    105 H           1.1669   -1.6178   -8.8272 H       1  LIG1        0.0670
    106 H           2.8874   -3.9705   -7.8222 H       1  LIG1        0.0637
@<TRIPOS>BOND
     1     1    41    1
     2     1    28    1
     3     2    34    2
     4     3    38   ar
     5     4    38   ar
     6     5    41    2
     7     6    48    1
     8     7    50    2
     9     8    53   ar
    10     9    53   ar
    11    10    45    1
    12    10    50   am
    13    11    16    1
    14    11    12    1
    15    11    26    1
    16    11    13    1
    17    12    14    1
    18    13    20    1
    19    13    17    1
    20    13    28    1
    21    14    15    1
    22    14    24    1
    23    14    29    1
    24    15    19    1
    25    15    23    1
    26    16    19    1
    27    17    18    1
    28    17    27    2
    29    18    30    1
    30    18    22    1
    31    20    25    1
    32    21    27    1
    33    21    12    1
    34    22    31    1
    35    22    25    1
    36    22    38    1
    37    23    34    1
    38    23    37    1
    39    23    36    1
    40    24    32    1
    41    30    33    1
    42    31    35    1
    43    32    34    1
    44    33    35    1
    45    33    40    1
    46    33    39    1
    47    41    42    1
    48    42    43    2
    49    43    44    1
    50    44    46   ar
    51    44    45   ar
    52    45    47   ar
    53    46    48   ar
    54    47    49   ar
    55    48    49   ar
    56    50    51    1
    57    51    52    2
    58    52    53    1
    59     6    54    1
    60    10    55    1
    61    12    56    1
    62    15    57    1
    63    16    58    1
    64    16    59    1
    65    18    60    1
    66    19    61    1
    67    19    62    1
    68    20    63    1
    69    20    64    1
    70    21    65    1
    71    21    66    1
    72    24    67    1
    73    24    68    1
    74    25    69    1
    75    25    70    1
    76    26    71    1
    77    26    72    1
    78    26    73    1
    79    27    74    1
    80    28    75    1
    81    28    76    1
    82    29    77    1
    83    29    78    1
    84    29    79    1
    85    30    80    1
    86    30    81    1
    87    31    82    1
    88    31    83    1
    89    32    84    1
    90    32    85    1
    91    35    86    1
    92    35    87    1
    93    36    88    1
    94    36    89    1
    95    36    90    1
    96    37    91    1
    97    37    92    1
    98    37    93    1
    99    39    94    1
   100    39    95    1
   101    39    96    1
   102    40    97    1
   103    40    98    1
   104    40    99    1
   105    42   100    1
   106    43   101    1
   107    46   102    1
   108    47   103    1
   109    49   104    1
   110    51   105    1
   111    52   106    1
@<TRIPOS>MOLECULE
11672244
 106 111 0 0 0
SMALL
GASTEIGER

@<TRIPOS>ATOM
      1 O          -3.8356    0.1881   -6.3790 O.3     1  LIG1       -0.4607
      2 O          -6.4227    6.5717   -7.3948 O.2     1  LIG1       -0.2968
      3 O          -6.6161   -4.2372   -9.7429 O.co2   1  LIG1       -0.5492
      4 O          -7.4240   -5.4691   -8.0169 O.co2   1  LIG1       -0.5492
      5 O          -2.0683   -1.1871   -6.9546 O.2     1  LIG1       -0.2456
      6 O          -1.4384    5.8547  -10.1403 O.3     1  LIG1       -0.5067
      7 O          -1.5188    2.1025   -4.3404 O.2     1  LIG1       -0.2705
      8 O           2.4409    0.1237   -1.5263 O.co2   1  LIG1       -0.5452
      9 O           2.3894    2.3880   -1.2260 O.co2   1  LIG1       -0.5452
     10 N          -0.0115    3.6997   -5.1885 N.am    1  LIG1       -0.2815
     11 C          -6.7939   -0.0229   -7.4369 C.3     1  LIG1       -0.0160
     12 C          -6.0342    1.0276   -8.3269 C.3     1  LIG1       -0.0256
     13 C          -5.7922   -1.2750   -7.0738 C.3     1  LIG1        0.0318
     14 C          -6.7015    2.4736   -8.5011 C.3     1  LIG1       -0.0243
     15 C          -7.1082    2.9904   -7.0736 C.3     1  LIG1       -0.0235
     16 C          -7.3139    0.6581   -6.1449 C.3     1  LIG1       -0.0461
     17 C          -5.0768   -1.7847   -8.3460 C.2     1  LIG1       -0.0596
     18 C          -4.4181   -3.1797   -8.2317 C.3     1  LIG1       -0.0080
     19 C          -8.0422    1.9813   -6.3784 C.3     1  LIG1       -0.0483
     20 C          -6.6399   -2.4368   -6.4459 C.3     1  LIG1       -0.0392
     21 C          -5.5419    0.3629   -9.6305 C.3     1  LIG1       -0.0306
     22 C          -5.3691   -4.2681   -7.6752 C.3     1  LIG1        0.0167
     23 C          -7.5793    4.4807   -6.9703 C.3     1  LIG1        0.0267
     24 C          -5.6109    3.4532   -9.0203 C.3     1  LIG1       -0.0404
     25 C          -5.9219   -3.7799   -6.3163 C.3     1  LIG1       -0.0408
     26 C          -8.0405   -0.5594   -8.2118 C.3     1  LIG1       -0.0584
     27 C          -4.9967   -1.0250   -9.4575 C.2     1  LIG1       -0.0835
     28 C          -4.6716   -0.9216   -6.0121 C.3     1  LIG1        0.1025
     29 C          -7.8686    2.4814   -9.5145 C.3     1  LIG1       -0.0590
     30 C          -3.5977   -3.6673   -9.4523 C.3     1  LIG1       -0.0405
     31 C          -4.5829   -5.5796   -7.4206 C.3     1  LIG1       -0.0412
     32 C          -6.0264    4.9169   -9.0424 C.3     1  LIG1        0.0069
     33 C          -2.8347   -4.9911   -9.2012 C.3     1  LIG1       -0.0343
     34 C          -6.6103    5.3989   -7.7353 C.2     1  LIG1        0.1392
     35 C          -3.7951   -6.0575   -8.6405 C.3     1  LIG1       -0.0470
     36 C          -8.9987    4.7504   -7.4912 C.3     1  LIG1       -0.0528
     37 C          -7.5469    4.9240   -5.4829 C.3     1  LIG1       -0.0528
     38 C          -6.5861   -4.6915   -8.5650 C.2     1  LIG1        0.0485
     39 C          -2.2553   -5.4966  -10.5364 C.3     1  LIG1       -0.0598
     40 C          -1.6499   -4.7644   -8.2381 C.3     1  LIG1       -0.0598
     41 C          -2.5881   -0.0878   -6.8331 C.2     1  LIG1        0.3320
     42 C          -1.8808    1.1402   -7.2567 C.2     1  LIG1        0.0231
     43 C          -2.2681    2.3729   -6.8987 C.2     1  LIG1       -0.0460
     44 C          -1.5000    3.5688   -7.2411 C.ar    1  LIG1       -0.0001
     45 C          -0.4936    4.1469   -6.4425 C.ar    1  LIG1        0.0411
     46 C          -1.8031    4.1395   -8.4966 C.ar    1  LIG1       -0.0113
     47 C           0.1667    5.2938   -6.9322 C.ar    1  LIG1       -0.0364
     48 C          -1.1448    5.2811   -8.9390 C.ar    1  LIG1        0.1175
     49 C          -0.1625    5.8657   -8.1628 C.ar    1  LIG1       -0.0184
     50 C          -0.4784    2.7409   -4.3121 C.2     1  LIG1        0.2411
     51 C           0.4776    2.5903   -3.1867 C.2     1  LIG1        0.0021
     52 C           0.9691    1.3929   -2.8389 C.2     1  LIG1       -0.0344
     53 C           2.0268    1.2952   -1.7475 C.2     1  LIG1        0.0647
     54 H          -2.1513    5.3422  -10.5558 H       1  LIG1        0.2921
     55 H           0.8381    4.1528   -4.8739 H       1  LIG1        0.1551
     56 H          -5.1224    1.2666   -7.7780 H       1  LIG1        0.0315
     57 H          -6.1712    2.9685   -6.4911 H       1  LIG1        0.0315
     58 H          -6.4837    0.8782   -5.4672 H       1  LIG1        0.0271
     59 H          -7.9821   -0.0175   -5.5978 H       1  LIG1        0.0271
     60 H          -3.6564   -3.0391   -7.4569 H       1  LIG1        0.0355
     61 H          -8.9634    1.8198   -6.9449 H       1  LIG1        0.0269
     62 H          -8.3551    2.3501   -5.3973 H       1  LIG1        0.0269
     63 H          -7.5353   -2.6398   -7.0373 H       1  LIG1        0.0275
     64 H          -6.9965   -2.1386   -5.4523 H       1  LIG1        0.0275
     65 H          -6.3382    0.2975  -10.3763 H       1  LIG1        0.0310
     66 H          -4.7469    0.9766  -10.0695 H       1  LIG1        0.0310
     67 H          -5.2869    3.1715  -10.0287 H       1  LIG1        0.0275
     68 H          -4.7302    3.3713   -8.3739 H       1  LIG1        0.0275
     69 H          -6.6197   -4.5082   -5.8835 H       1  LIG1        0.0275
     70 H          -5.1104   -3.6946   -5.5835 H       1  LIG1        0.0275
     71 H          -8.6236    0.2256   -8.6835 H       1  LIG1        0.0235
     72 H          -8.7457   -1.0650   -7.5431 H       1  LIG1        0.0235
     73 H          -7.7704   -1.2651   -9.0033 H       1  LIG1        0.0235
     74 H          -4.5133   -1.4262  -10.3438 H       1  LIG1        0.0572
     75 H          -5.1355   -0.6531   -5.0570 H       1  LIG1        0.0706
     76 H          -4.0493   -1.7874   -5.7644 H       1  LIG1        0.0706
     77 H          -8.8228    2.1969   -9.0691 H       1  LIG1        0.0235
     78 H          -7.6875    1.8247  -10.3672 H       1  LIG1        0.0235
     79 H          -8.0351    3.4640   -9.9596 H       1  LIG1        0.0235
     80 H          -2.8674   -2.8959   -9.7325 H       1  LIG1        0.0276
     81 H          -4.2555   -3.7898  -10.3206 H       1  LIG1        0.0276
     82 H          -5.2513   -6.3886   -7.0989 H       1  LIG1        0.0274
     83 H          -3.8863   -5.4350   -6.5847 H       1  LIG1        0.0274
     84 H          -6.7507    5.1242   -9.8349 H       1  LIG1        0.0342
     85 H          -5.1386    5.5242   -9.2581 H       1  LIG1        0.0342
     86 H          -4.5032   -6.3650   -9.4205 H       1  LIG1        0.0271
     87 H          -3.2345   -6.9610   -8.3678 H       1  LIG1        0.0271
     88 H          -9.0770    4.6647   -8.5756 H       1  LIG1        0.0239
     89 H          -9.3079    5.7768   -7.2560 H       1  LIG1        0.0239
     90 H          -9.7348    4.0803   -7.0367 H       1  LIG1        0.0239
     91 H          -6.5589    4.7533   -5.0400 H       1  LIG1        0.0239
     92 H          -8.2894    4.3956   -4.8776 H       1  LIG1        0.0239
     93 H          -7.7652    5.9932   -5.3739 H       1  LIG1        0.0239
     94 H          -3.0483   -5.6839  -11.2689 H       1  LIG1        0.0235
     95 H          -1.7034   -6.4333  -10.3979 H       1  LIG1        0.0235
     96 H          -1.5664   -4.7637  -10.9712 H       1  LIG1        0.0235
     97 H          -1.9657   -4.4191   -7.2499 H       1  LIG1        0.0235
     98 H          -0.9576   -4.0147   -8.6384 H       1  LIG1        0.0235
     99 H          -1.0828   -5.6906   -8.0898 H       1  LIG1        0.0235
    100 H          -0.9724    0.9622   -7.8196 H       1  LIG1        0.0689
    101 H          -3.1414    2.5361   -6.2723 H       1  LIG1        0.0626
    102 H          -2.5558    3.6718   -9.1250 H       1  LIG1        0.0660
    103 H           0.9476    5.7720   -6.3448 H       1  LIG1        0.0637
    104 H           0.3510    6.7578   -8.5084 H       1  LIG1        0.0655
    105 H           0.8056    3.4959   -2.6891 H       1  LIG1        0.0670
    106 H           0.6572    0.4822   -3.3394 H       1  LIG1        0.0637
@<TRIPOS>BOND
     1     1    41    1
     2     1    28    1
     3     2    34    2
     4     3    38   ar
     5     4    38   ar
     6     5    41    2
     7     6    48    1
     8     7    50    2
     9     8    53   ar
    10     9    53   ar
    11    10    45    1
    12    10    50   am
    13    11    16    1
    14    11    12    1
    15    11    26    1
    16    11    13    1
    17    12    14    1
    18    13    20    1
    19    13    17    1
    20    13    28    1
    21    14    15    1
    22    14    24    1
    23    14    29    1
    24    15    19    1
    25    15    23    1
    26    16    19    1
    27    17    18    1
    28    17    27    2
    29    18    30    1
    30    18    22    1
    31    20    25    1
    32    21    27    1
    33    21    12    1
    34    22    31    1
    35    22    25    1
    36    22    38    1
    37    23    34    1
    38    23    37    1
    39    23    36    1
    40    24    32    1
    41    30    33    1
    42    31    35    1
    43    32    34    1
    44    33    35    1
    45    33    40    1
    46    33    39    1
    47    41    42    1
    48    42    43    2
    49    43    44    1
    50    44    46   ar
    51    44    45   ar
    52    45    47   ar
    53    46    48   ar
    54    47    49   ar
    55    48    49   ar
    56    50    51    1
    57    51    52    2
    58    52    53    1
    59     6    54    1
    60    10    55    1
    61    12    56    1
    62    15    57    1
    63    16    58    1
    64    16    59    1
    65    18    60    1
    66    19    61    1
    67    19    62    1
    68    20    63    1
    69    20    64    1
    70    21    65    1
    71    21    66    1
    72    24    67    1
    73    24    68    1
    74    25    69    1
    75    25    70    1
    76    26    71    1
    77    26    72    1
    78    26    73    1
    79    27    74    1
    80    28    75    1
    81    28    76    1
    82    29    77    1
    83    29    78    1
    84    29    79    1
    85    30    80    1
    86    30    81    1
    87    31    82    1
    88    31    83    1
    89    32    84    1
    90    32    85    1
    91    35    86    1
    92    35    87    1
    93    36    88    1
    94    36    89    1
    95    36    90    1
    96    37    91    1
    97    37    92    1
    98    37    93    1
    99    39    94    1
   100    39    95    1
   101    39    96    1
   102    40    97    1
   103    40    98    1
   104    40    99    1
   105    42   100    1
   106    43   101    1
   107    46   102    1
   108    47   103    1
   109    49   104    1
   110    51   105    1
   111    52   106    1
@<TRIPOS>MOLECULE
11672244
 106 111 0 0 0
SMALL
GASTEIGER

@<TRIPOS>ATOM
      1 O          -3.7338    0.1141   -6.2571 O.3     1  LIG1       -0.4607
      2 O          -6.1938    6.5347   -7.2852 O.2     1  LIG1       -0.2968
      3 O          -6.5098   -4.2709   -9.8143 O.co2   1  LIG1       -0.5492
      4 O          -7.5672   -5.2409   -8.0546 O.co2   1  LIG1       -0.5492
      5 O          -2.0834   -1.3603   -6.9464 O.2     1  LIG1       -0.2456
      6 O           0.2586    6.2413   -6.7791 O.3     1  LIG1       -0.5067
      7 O           1.6383   -0.1496   -2.7584 O.2     1  LIG1       -0.2705
      8 O           1.2074    3.9665    0.0530 O.co2   1  LIG1       -0.5452
      9 O           3.0723    3.0486    0.9981 O.co2   1  LIG1       -0.5452
     10 N           0.6954    1.3369   -4.1728 N.am    1  LIG1       -0.2815
     11 C          -6.7141   -0.0203   -7.4166 C.3     1  LIG1       -0.0160
     12 C          -5.9097    1.0249   -8.2735 C.3     1  LIG1       -0.0256
     13 C          -5.7414   -1.2847   -7.0310 C.3     1  LIG1        0.0318
     14 C          -6.5568    2.4778   -8.4654 C.3     1  LIG1       -0.0243
     15 C          -7.0055    2.9930   -7.0493 C.3     1  LIG1       -0.0235
     16 C          -7.2690    0.6598   -6.1391 C.3     1  LIG1       -0.0461
     17 C          -5.0068   -1.8023   -8.2875 C.2     1  LIG1       -0.0596
     18 C          -4.3929   -3.2163   -8.1746 C.3     1  LIG1       -0.0080
     19 C          -7.9744    1.9921   -6.3905 C.3     1  LIG1       -0.0483
     20 C          -6.6215   -2.4315   -6.4143 C.3     1  LIG1       -0.0392
     21 C          -5.3911    0.3624   -9.5679 C.3     1  LIG1       -0.0306
     22 C          -5.4000   -4.2770   -7.6719 C.3     1  LIG1        0.0167
     23 C          -7.4617    4.4889   -6.9538 C.3     1  LIG1        0.0267
     24 C          -5.4422    3.4478   -8.9578 C.3     1  LIG1       -0.0404
     25 C          -5.9445   -3.7985   -6.3051 C.3     1  LIG1       -0.0408
     26 C          -7.9412   -0.5408   -8.2347 C.3     1  LIG1       -0.0584
     27 C          -4.8790   -1.0363   -9.3900 C.2     1  LIG1       -0.0835
     28 C          -4.6430   -0.9567   -5.9406 C.3     1  LIG1        0.1025
     29 C          -7.6970    2.4984   -9.5116 C.3     1  LIG1       -0.0590
     30 C          -3.5356   -3.6985   -9.3702 C.3     1  LIG1       -0.0405
     31 C          -4.6891   -5.6362   -7.4498 C.3     1  LIG1       -0.0412
     32 C          -5.8512    4.9149   -8.9797 C.3     1  LIG1        0.0069
     33 C          -2.8364   -5.0568   -9.1269 C.3     1  LIG1       -0.0343
     34 C          -6.4399    5.3877   -7.6718 C.2     1  LIG1        0.1392
     35 C          -3.8664   -6.0999   -8.6530 C.3     1  LIG1       -0.0470
     36 C          -8.8551    4.7840   -7.5280 C.3     1  LIG1       -0.0528
     37 C          -7.4856    4.9217   -5.4630 C.3     1  LIG1       -0.0528
     38 C          -6.6086   -4.6190   -8.6044 C.2     1  LIG1        0.0485
     39 C          -2.2087   -5.5383  -10.4491 C.3     1  LIG1       -0.0598
     40 C          -1.6951   -4.9092   -8.0983 C.3     1  LIG1       -0.0598
     41 C          -2.5020   -0.2416   -6.6968 C.2     1  LIG1        0.3320
     42 C          -1.6037    0.9219   -6.7879 C.2     1  LIG1        0.0231
     43 C          -1.5924    1.8370   -5.8108 C.2     1  LIG1       -0.0460
     44 C          -0.5156    2.8240   -5.6802 C.ar    1  LIG1       -0.0001
     45 C           0.5657    2.5965   -4.8013 C.ar    1  LIG1        0.0411
     46 C          -0.6254    4.0480   -6.3540 C.ar    1  LIG1       -0.0113
     47 C           1.5283    3.5984   -4.6252 C.ar    1  LIG1       -0.0364
     48 C           0.3404    5.0308   -6.1549 C.ar    1  LIG1        0.1175
     49 C           1.4151    4.8137   -5.3031 C.ar    1  LIG1       -0.0184
     50 C           1.2931    1.0094   -2.9820 C.2     1  LIG1        0.2411
     51 C           1.3378    2.0682   -1.9482 C.2     1  LIG1        0.0021
     52 C           2.1675    2.0190   -0.8990 C.2     1  LIG1       -0.0344
     53 C           2.1393    3.1193    0.1540 C.2     1  LIG1        0.0647
     54 H          -0.6278    6.3233   -7.1669 H       1  LIG1        0.2921
     55 H           0.3442    0.5282   -4.6687 H       1  LIG1        0.1551
     56 H          -5.0108    1.2457   -7.6920 H       1  LIG1        0.0315
     57 H          -6.0883    2.9574   -6.4368 H       1  LIG1        0.0315
     58 H          -6.4594    0.8670   -5.4330 H       1  LIG1        0.0271
     59 H          -7.9628   -0.0107   -5.6179 H       1  LIG1        0.0271
     60 H          -3.6611   -3.1181   -7.3662 H       1  LIG1        0.0355
     61 H          -8.8783    1.8433   -6.9878 H       1  LIG1        0.0269
     62 H          -8.3163    2.3597   -5.4187 H       1  LIG1        0.0269
     63 H          -7.5268   -2.5990   -7.0002 H       1  LIG1        0.0275
     64 H          -6.9647   -2.1360   -5.4148 H       1  LIG1        0.0275
     65 H          -6.1665    0.3155  -10.3367 H       1  LIG1        0.0310
     66 H          -4.5736    0.9651   -9.9794 H       1  LIG1        0.0310
     67 H          -5.1115    3.1694   -9.9653 H       1  LIG1        0.0275
     68 H          -4.5632    3.3530   -8.3054 H       1  LIG1        0.0275
     69 H          -6.6631   -4.5146   -5.8867 H       1  LIG1        0.0275
     70 H          -5.1330   -3.7503   -5.5684 H       1  LIG1        0.0275
     71 H          -8.4896    0.2483   -8.7391 H       1  LIG1        0.0235
     72 H          -8.6827   -1.0240   -7.5891 H       1  LIG1        0.0235
     73 H          -7.6559   -1.2622   -9.0066 H       1  LIG1        0.0235
     74 H          -4.3853   -1.4422  -10.2688 H       1  LIG1        0.0572
     75 H          -5.1293   -0.6665   -5.0032 H       1  LIG1        0.0706
     76 H          -4.0668   -1.8457   -5.6626 H       1  LIG1        0.0706
     77 H          -8.6659    2.2202   -9.0948 H       1  LIG1        0.0235
     78 H          -7.4982    1.8450  -10.3628 H       1  LIG1        0.0235
     79 H          -7.8448    3.4834   -9.9576 H       1  LIG1        0.0235
     80 H          -2.7652   -2.9468   -9.5910 H       1  LIG1        0.0276
     81 H          -4.1538   -3.7686  -10.2725 H       1  LIG1        0.0276
     82 H          -5.4126   -6.4231   -7.1998 H       1  LIG1        0.0274
     83 H          -4.0267   -5.5672   -6.5773 H       1  LIG1        0.0274
     84 H          -6.5690    5.1313   -9.7754 H       1  LIG1        0.0342
     85 H          -4.9598    5.5195   -9.1877 H       1  LIG1        0.0342
     86 H          -4.5496   -6.3453   -9.4760 H       1  LIG1        0.0271
     87 H          -3.3580   -7.0373   -8.3932 H       1  LIG1        0.0271
     88 H          -8.8949    4.7056   -8.6149 H       1  LIG1        0.0239
     89 H          -9.1570    5.8139   -7.2985 H       1  LIG1        0.0239
     90 H          -9.6185    4.1232   -7.1056 H       1  LIG1        0.0239
     91 H          -6.5208    4.7316   -4.9796 H       1  LIG1        0.0239
     92 H          -8.2622    4.4031   -4.8940 H       1  LIG1        0.0239
     93 H          -7.6906    5.9941   -5.3573 H       1  LIG1        0.0239
     94 H          -2.9692   -5.6674  -11.2270 H       1  LIG1        0.0235
     95 H          -1.7006   -6.5004  -10.3180 H       1  LIG1        0.0235
     96 H          -1.4708   -4.8184  -10.8212 H       1  LIG1        0.0235
     97 H          -2.0479   -4.5842   -7.1157 H       1  LIG1        0.0235
     98 H          -0.9551   -4.1748   -8.4369 H       1  LIG1        0.0235
     99 H          -1.1721   -5.8616   -7.9544 H       1  LIG1        0.0235
    100 H          -0.8396    0.8676   -7.5536 H       1  LIG1        0.0689
    101 H          -2.2970    1.8045   -4.9827 H       1  LIG1        0.0626
    102 H          -1.4712    4.2285   -7.0099 H       1  LIG1        0.0660
    103 H           2.3938    3.4430   -3.9854 H       1  LIG1        0.0637
    104 H           2.1639    5.5862   -5.1543 H       1  LIG1        0.0655
    105 H           0.6239    2.8830   -2.0416 H       1  LIG1        0.0670
    106 H           2.8744    1.2066   -0.7716 H       1  LIG1        0.0637
@<TRIPOS>BOND
     1     1    41    1
     2     1    28    1
     3     2    34    2
     4     3    38   ar
     5     4    38   ar
     6     5    41    2
     7     6    48    1
     8     7    50    2
     9     8    53   ar
    10     9    53   ar
    11    10    45    1
    12    10    50   am
    13    11    16    1
    14    11    12    1
    15    11    26    1
    16    11    13    1
    17    12    14    1
    18    13    20    1
    19    13    17    1
    20    13    28    1
    21    14    15    1
    22    14    24    1
    23    14    29    1
    24    15    19    1
    25    15    23    1
    26    16    19    1
    27    17    18    1
    28    17    27    2
    29    18    30    1
    30    18    22    1
    31    20    25    1
    32    21    27    1
    33    21    12    1
    34    22    31    1
    35    22    25    1
    36    22    38    1
    37    23    34    1
    38    23    37    1
    39    23    36    1
    40    24    32    1
    41    30    33    1
    42    31    35    1
    43    32    34    1
    44    33    35    1
    45    33    40    1
    46    33    39    1
    47    41    42    1
    48    42    43    2
    49    43    44    1
    50    44    46   ar
    51    44    45   ar
    52    45    47   ar
    53    46    48   ar
    54    47    49   ar
    55    48    49   ar
    56    50    51    1
    57    51    52    2
    58    52    53    1
    59     6    54    1
    60    10    55    1
    61    12    56    1
    62    15    57    1
    63    16    58    1
    64    16    59    1
    65    18    60    1
    66    19    61    1
    67    19    62    1
    68    20    63    1
    69    20    64    1
    70    21    65    1
    71    21    66    1
    72    24    67    1
    73    24    68    1
    74    25    69    1
    75    25    70    1
    76    26    71    1
    77    26    72    1
    78    26    73    1
    79    27    74    1
    80    28    75    1
    81    28    76    1
    82    29    77    1
    83    29    78    1
    84    29    79    1
    85    30    80    1
    86    30    81    1
    87    31    82    1
    88    31    83    1
    89    32    84    1
    90    32    85    1
    91    35    86    1
    92    35    87    1
    93    36    88    1
    94    36    89    1
    95    36    90    1
    96    37    91    1
    97    37    92    1
    98    37    93    1
    99    39    94    1
   100    39    95    1
   101    39    96    1
   102    40    97    1
   103    40    98    1
   104    40    99    1
   105    42   100    1
   106    43   101    1
   107    46   102    1
   108    47   103    1
   109    49   104    1
   110    51   105    1
   111    52   106    1
@<TRIPOS>MOLECULE
11672244
 106 111 0 0 0
SMALL
GASTEIGER

@<TRIPOS>ATOM
      1 O          -3.7851   -0.0449   -6.0774 O.3     1  LIG1       -0.4607
      2 O          -6.3338    6.6033   -7.2180 O.2     1  LIG1       -0.2968
      3 O          -6.5361   -4.1220   -9.6613 O.co2   1  LIG1       -0.5492
      4 O          -7.2883   -5.5630   -8.0772 O.co2   1  LIG1       -0.5492
      5 O          -4.4171    1.5064   -4.5048 O.2     1  LIG1       -0.2456
      6 O           2.0937   -0.0299   -2.0755 O.3     1  LIG1       -0.5067
      7 O           0.3563    0.3681   -8.2545 O.2     1  LIG1       -0.2705
      8 O           1.2582    4.3699  -11.2637 O.co2   1  LIG1       -0.5452
      9 O           3.0982    3.1905  -11.9347 O.co2   1  LIG1       -0.5452
     10 N           1.0380    2.2486   -7.0405 N.am    1  LIG1       -0.2815
     11 C          -6.8192    0.0206   -7.4271 C.3     1  LIG1       -0.0160
     12 C          -5.9424    1.0792   -8.1906 C.3     1  LIG1       -0.0256
     13 C          -5.8680   -1.2399   -6.9774 C.3     1  LIG1        0.0318
     14 C          -6.5678    2.5343   -8.4159 C.3     1  LIG1       -0.0243
     15 C          -7.1169    3.0295   -7.0319 C.3     1  LIG1       -0.0235
     16 C          -7.5008    0.6787   -6.1981 C.3     1  LIG1       -0.0461
     17 C          -5.0109   -1.7305   -8.1672 C.2     1  LIG1       -0.0596
     18 C          -4.3700   -3.1272   -8.0250 C.3     1  LIG1       -0.0080
     19 C          -8.1538    2.0319   -6.4767 C.3     1  LIG1       -0.0483
     20 C          -6.7771   -2.4142   -6.4667 C.3     1  LIG1       -0.0392
     21 C          -5.3210    0.4435   -9.4507 C.3     1  LIG1       -0.0306
     22 C          -5.3579   -4.2270   -7.5562 C.3     1  LIG1        0.0167
     23 C          -7.5579    4.5289   -6.9424 C.3     1  LIG1        0.0267
     24 C          -5.4178    3.5044   -8.8162 C.3     1  LIG1       -0.0404
     25 C          -6.0628   -3.7553   -6.2647 C.3     1  LIG1       -0.0408
     26 C          -7.9646   -0.4983   -8.3555 C.3     1  LIG1       -0.0584
     27 C          -4.8059   -0.9485   -9.2468 C.2     1  LIG1       -0.0835
     28 C          -4.8953   -0.9086   -5.7796 C.3     1  LIG1        0.1025
     29 C          -7.6295    2.5704   -9.5419 C.3     1  LIG1       -0.0590
     30 C          -3.4994   -3.6050   -9.2178 C.3     1  LIG1       -0.0405
     31 C          -4.5624   -5.5192   -7.2402 C.3     1  LIG1       -0.0412
     32 C          -5.8197    4.9721   -8.8609 C.3     1  LIG1        0.0069
     33 C          -2.7631   -4.9443   -8.9760 C.3     1  LIG1       -0.0343
     34 C          -6.5096    5.4419   -7.6029 C.2     1  LIG1        0.1392
     35 C          -3.7356   -6.0079   -8.4312 C.3     1  LIG1       -0.0470
     36 C          -8.9255    4.8392   -7.5690 C.3     1  LIG1       -0.0528
     37 C          -7.6351    4.9444   -5.4481 C.3     1  LIG1       -0.0528
     38 C          -6.5021   -4.6756   -8.5293 C.2     1  LIG1        0.0485
     39 C          -2.1822   -5.4400  -10.3154 C.3     1  LIG1       -0.0598
     40 C          -1.5836   -4.7408   -8.0029 C.3     1  LIG1       -0.0598
     41 C          -3.5795    0.9774   -5.2210 C.2     1  LIG1        0.3320
     42 C          -2.1446    1.2994   -5.0709 C.2     1  LIG1        0.0231
     43 C          -1.1297    0.6210   -5.6299 C.2     1  LIG1       -0.0460
     44 C           0.2489    0.8283   -5.1523 C.ar    1  LIG1       -0.0001
     45 C           1.2038    1.6535   -5.7751 C.ar    1  LIG1        0.0411
     46 C           0.5602    0.2516   -3.9038 C.ar    1  LIG1       -0.0113
     47 C           2.4039    1.9499   -5.1073 C.ar    1  LIG1       -0.0364
     48 C           1.7771    0.5196   -3.2833 C.ar    1  LIG1        0.1175
     49 C           2.6962    1.3736   -3.8705 C.ar    1  LIG1       -0.0184
     50 C           0.6483    1.5519   -8.1713 C.2     1  LIG1        0.2411
     51 C           0.7555    2.4289   -9.3569 C.2     1  LIG1        0.0021
     52 C           1.8469    2.3742  -10.1341 C.2     1  LIG1       -0.0344
     53 C           2.0704    3.4043  -11.2328 C.2     1  LIG1        0.0647
     54 H           1.3841   -0.6474   -1.8315 H       1  LIG1        0.2921
     55 H           1.6034    3.0633   -7.2500 H       1  LIG1        0.1551
     56 H          -5.0939    1.2782   -7.5276 H       1  LIG1        0.0315
     57 H          -6.2523    2.9661   -6.3500 H       1  LIG1        0.0315
     58 H          -6.7758    0.8567   -5.4025 H       1  LIG1        0.0271
     59 H          -8.2538    0.0055   -5.7707 H       1  LIG1        0.0271
     60 H          -3.6505   -2.9899   -7.2048 H       1  LIG1        0.0355
     61 H          -9.0094    1.9129   -7.1469 H       1  LIG1        0.0269
     62 H          -8.5672    2.3881   -5.5283 H       1  LIG1        0.0269
     63 H          -7.5945   -2.6153   -7.1628 H       1  LIG1        0.0275
     64 H          -7.2506   -2.1294   -5.5189 H       1  LIG1        0.0275
     65 H          -6.0357    0.3972  -10.2765 H       1  LIG1        0.0310
     66 H          -4.4815    1.0590   -9.7927 H       1  LIG1        0.0310
     67 H          -5.0152    3.2336   -9.7994 H       1  LIG1        0.0275
     68 H          -4.5896    3.4014   -8.1022 H       1  LIG1        0.0275
     69 H          -6.8004   -4.4902   -5.9177 H       1  LIG1        0.0275
     70 H          -5.3403   -3.6815   -5.4441 H       1  LIG1        0.0275
     71 H          -8.4993    0.2979   -8.8642 H       1  LIG1        0.0235
     72 H          -8.7360   -1.0292   -7.7867 H       1  LIG1        0.0235
     73 H          -7.6024   -1.1790   -9.1315 H       1  LIG1        0.0235
     74 H          -4.2246   -1.3204  -10.0858 H       1  LIG1        0.0572
     75 H          -5.4551   -0.5776   -4.8985 H       1  LIG1        0.0706
     76 H          -4.4057   -1.8254   -5.4381 H       1  LIG1        0.0706
     77 H          -8.6228    2.2705   -9.2065 H       1  LIG1        0.0235
     78 H          -7.3599    1.9418  -10.3926 H       1  LIG1        0.0235
     79 H          -7.7593    3.5661   -9.9693 H       1  LIG1        0.0235
     80 H          -2.7453   -2.8405   -9.4498 H       1  LIG1        0.0276
     81 H          -4.1230   -3.6957  -10.1153 H       1  LIG1        0.0276
     82 H          -5.2262   -6.3317   -6.9190 H       1  LIG1        0.0274
     83 H          -3.8937   -5.3411   -6.3882 H       1  LIG1        0.0274
     84 H          -6.4736    5.1926   -9.7094 H       1  LIG1        0.0342
     85 H          -4.9141    5.5756   -8.9963 H       1  LIG1        0.0342
     86 H          -4.4187   -6.3269   -9.2289 H       1  LIG1        0.0271
     87 H          -3.1806   -6.9069   -8.1339 H       1  LIG1        0.0271
     88 H          -8.9324    4.7250   -8.6535 H       1  LIG1        0.0239
     89 H          -9.2096    5.8822   -7.3800 H       1  LIG1        0.0239
     90 H          -9.7175    4.2098   -7.1514 H       1  LIG1        0.0239
     91 H          -6.6801    4.7684   -4.9394 H       1  LIG1        0.0239
     92 H          -8.4156    4.4027   -4.9062 H       1  LIG1        0.0239
     93 H          -7.8642    6.0112   -5.3364 H       1  LIG1        0.0239
     94 H          -2.9740   -5.6069  -11.0545 H       1  LIG1        0.0235
     95 H          -1.6431   -6.3855  -10.1879 H       1  LIG1        0.0235
     96 H          -1.4830   -4.7097  -10.7384 H       1  LIG1        0.0235
     97 H          -1.9058   -4.3875   -7.0196 H       1  LIG1        0.0235
     98 H          -0.8726   -4.0054   -8.3971 H       1  LIG1        0.0235
     99 H          -1.0357   -5.6776   -7.8501 H       1  LIG1        0.0235
    100 H          -1.9591    2.0757   -4.3362 H       1  LIG1        0.0689
    101 H          -1.2802   -0.1819   -6.3495 H       1  LIG1        0.0626
    102 H          -0.1707   -0.3902   -3.4186 H       1  LIG1        0.0660
    103 H           3.1465    2.5941   -5.5721 H       1  LIG1        0.0637
    104 H           3.6423    1.5803   -3.3803 H       1  LIG1        0.0655
    105 H          -0.0075    3.1876   -9.4803 H       1  LIG1        0.0670
    106 H           2.6162    1.6235   -9.9851 H       1  LIG1        0.0637
@<TRIPOS>BOND
     1     1    41    1
     2     1    28    1
     3     2    34    2
     4     3    38   ar
     5     4    38   ar
     6     5    41    2
     7     6    48    1
     8     7    50    2
     9     8    53   ar
    10     9    53   ar
    11    10    45    1
    12    10    50   am
    13    11    16    1
    14    11    12    1
    15    11    26    1
    16    11    13    1
    17    12    14    1
    18    13    20    1
    19    13    17    1
    20    13    28    1
    21    14    15    1
    22    14    24    1
    23    14    29    1
    24    15    19    1
    25    15    23    1
    26    16    19    1
    27    17    18    1
    28    17    27    2
    29    18    30    1
    30    18    22    1
    31    20    25    1
    32    21    27    1
    33    21    12    1
    34    22    31    1
    35    22    25    1
    36    22    38    1
    37    23    34    1
    38    23    37    1
    39    23    36    1
    40    24    32    1
    41    30    33    1
    42    31    35    1
    43    32    34    1
    44    33    35    1
    45    33    40    1
    46    33    39    1
    47    41    42    1
    48    42    43    2
    49    43    44    1
    50    44    46   ar
    51    44    45   ar
    52    45    47   ar
    53    46    48   ar
    54    47    49   ar
    55    48    49   ar
    56    50    51    1
    57    51    52    2
    58    52    53    1
    59     6    54    1
    60    10    55    1
    61    12    56    1
    62    15    57    1
    63    16    58    1
    64    16    59    1
    65    18    60    1
    66    19    61    1
    67    19    62    1
    68    20    63    1
    69    20    64    1
    70    21    65    1
    71    21    66    1
    72    24    67    1
    73    24    68    1
    74    25    69    1
    75    25    70    1
    76    26    71    1
    77    26    72    1
    78    26    73    1
    79    27    74    1
    80    28    75    1
    81    28    76    1
    82    29    77    1
    83    29    78    1
    84    29    79    1
    85    30    80    1
    86    30    81    1
    87    31    82    1
    88    31    83    1
    89    32    84    1
    90    32    85    1
    91    35    86    1
    92    35    87    1
    93    36    88    1
    94    36    89    1
    95    36    90    1
    96    37    91    1
    97    37    92    1
    98    37    93    1
    99    39    94    1
   100    39    95    1
   101    39    96    1
   102    40    97    1
   103    40    98    1
   104    40    99    1
   105    42   100    1
   106    43   101    1
   107    46   102    1
   108    47   103    1
   109    49   104    1
   110    51   105    1
   111    52   106    1
@<TRIPOS>MOLECULE
11672244
 106 111 0 0 0
SMALL
GASTEIGER

@<TRIPOS>ATOM
      1 O          -3.7827   -0.0473   -6.0911 O.3     1  LIG1       -0.4607
      2 O          -6.3121    6.5904   -7.2621 O.2     1  LIG1       -0.2968
      3 O          -6.6045   -4.0720   -9.7265 O.co2   1  LIG1       -0.5492
      4 O          -7.5978   -5.2691   -8.0744 O.co2   1  LIG1       -0.5492
      5 O          -4.4965    1.6574   -4.7173 O.2     1  LIG1       -0.2456
      6 O           1.8001    2.5382   -1.9342 O.3     1  LIG1       -0.5067
      7 O           0.2023   -2.1659   -5.9573 O.2     1  LIG1       -0.2705
      8 O           2.4850   -2.9574  -10.4121 O.co2   1  LIG1       -0.5452
      9 O           3.0011   -4.9255   -9.3689 O.co2   1  LIG1       -0.5452
     10 N           1.2859   -0.2418   -6.7259 N.am    1  LIG1       -0.2815
     11 C          -6.8424    0.0200   -7.4245 C.3     1  LIG1       -0.0160
     12 C          -5.9689    1.0701   -8.2035 C.3     1  LIG1       -0.0256
     13 C          -5.8902   -1.2338   -6.9620 C.3     1  LIG1        0.0318
     14 C          -6.5953    2.5226   -8.4396 C.3     1  LIG1       -0.0243
     15 C          -7.1349    3.0296   -7.0562 C.3     1  LIG1       -0.0235
     16 C          -7.5261    0.6865   -6.2020 C.3     1  LIG1       -0.0461
     17 C          -5.0500   -1.7413   -8.1586 C.2     1  LIG1       -0.0596
     18 C          -4.4469   -3.1571   -8.0268 C.3     1  LIG1       -0.0080
     19 C          -8.1733    2.0403   -6.4894 C.3     1  LIG1       -0.0483
     20 C          -6.8022   -2.3870   -6.4064 C.3     1  LIG1       -0.0392
     21 C          -5.3524    0.4223   -9.4596 C.3     1  LIG1       -0.0306
     22 C          -5.4893   -4.2170   -7.5866 C.3     1  LIG1        0.0167
     23 C          -7.5662    4.5318   -6.9708 C.3     1  LIG1        0.0267
     24 C          -5.4479    3.4871   -8.8592 C.3     1  LIG1       -0.0404
     25 C          -6.1178   -3.7486   -6.2546 C.3     1  LIG1       -0.0408
     26 C          -7.9869   -0.5119   -8.3487 C.3     1  LIG1       -0.0584
     27 C          -4.8433   -0.9693   -9.2454 C.2     1  LIG1       -0.0835
     28 C          -4.8998   -0.8953   -5.7798 C.3     1  LIG1        0.1025
     29 C          -7.6644    2.5496   -9.5588 C.3     1  LIG1       -0.0590
     30 C          -3.5752   -3.6442   -9.2143 C.3     1  LIG1       -0.0405
     31 C          -4.7909   -5.5779   -7.3427 C.3     1  LIG1       -0.0412
     32 C          -5.8501    4.9538   -8.9119 C.3     1  LIG1        0.0069
     33 C          -2.9148   -5.0256   -8.9965 C.3     1  LIG1       -0.0343
     34 C          -6.5152    5.4323   -7.6443 C.2     1  LIG1        0.1392
     35 C          -3.9680   -6.0521   -8.5416 C.3     1  LIG1       -0.0470
     36 C          -8.9363    4.8462   -7.5889 C.3     1  LIG1       -0.0528
     37 C          -7.6290    4.9554   -5.4783 C.3     1  LIG1       -0.0528
     38 C          -6.6734   -4.5476   -8.5602 C.2     1  LIG1        0.0485
     39 C          -2.2967   -5.4975  -10.3279 C.3     1  LIG1       -0.0598
     40 C          -1.7739   -4.9248   -7.9651 C.3     1  LIG1       -0.0598
     41 C          -3.6219    1.0414   -5.3120 C.2     1  LIG1        0.3320
     42 C          -2.2006    1.4064   -5.1558 C.2     1  LIG1        0.0231
     43 C          -1.2148    0.4927   -5.1691 C.2     1  LIG1       -0.0460
     44 C           0.1671    0.8033   -4.7546 C.ar    1  LIG1       -0.0001
     45 C           1.3096    0.4816   -5.5144 C.ar    1  LIG1        0.0411
     46 C           0.3462    1.4870   -3.5336 C.ar    1  LIG1       -0.0113
     47 C           2.5749    0.9316   -5.0973 C.ar    1  LIG1       -0.0364
     48 C           1.6151    1.8806   -3.1152 C.ar    1  LIG1        0.1175
     49 C           2.7291    1.6195   -3.8946 C.ar    1  LIG1       -0.0184
     50 C           0.7761   -1.5285   -6.8284 C.2     1  LIG1        0.2411
     51 C           1.1940   -2.1182   -8.1226 C.2     1  LIG1        0.0021
     52 C           1.8538   -3.2843   -8.1554 C.2     1  LIG1       -0.0344
     53 C           2.4817   -3.7776   -9.4509 C.2     1  LIG1        0.0647
     54 H           0.9456    2.5743   -1.4731 H       1  LIG1        0.2921
     55 H           2.0689   -0.0924   -7.3524 H       1  LIG1        0.1551
     56 H          -5.1168    1.2747   -7.5481 H       1  LIG1        0.0315
     57 H          -6.2671    2.9665   -6.3795 H       1  LIG1        0.0315
     58 H          -6.8055    0.8619   -5.4025 H       1  LIG1        0.0271
     59 H          -8.2836    0.0183   -5.7746 H       1  LIG1        0.0271
     60 H          -3.7337   -3.0557   -7.1958 H       1  LIG1        0.0355
     61 H          -9.0311    1.9186   -7.1564 H       1  LIG1        0.0269
     62 H          -8.5830    2.4057   -5.5430 H       1  LIG1        0.0269
     63 H          -7.6669   -2.5589   -7.0492 H       1  LIG1        0.0275
     64 H          -7.2119   -2.0959   -5.4308 H       1  LIG1        0.0275
     65 H          -6.0703    0.3721  -10.2826 H       1  LIG1        0.0310
     66 H          -4.5119    1.0318   -9.8096 H       1  LIG1        0.0310
     67 H          -5.0555    3.2077   -9.8441 H       1  LIG1        0.0275
     68 H          -4.6129    3.3894   -8.1524 H       1  LIG1        0.0275
     69 H          -6.8546   -4.4706   -5.8804 H       1  LIG1        0.0275
     70 H          -5.3521   -3.7025   -5.4712 H       1  LIG1        0.0275
     71 H          -8.5022    0.2742   -8.8912 H       1  LIG1        0.0235
     72 H          -8.7737   -1.0117   -7.7732 H       1  LIG1        0.0235
     73 H          -7.6274   -1.2236   -9.0978 H       1  LIG1        0.0235
     74 H          -4.2802   -1.3620  -10.0876 H       1  LIG1        0.0572
     75 H          -5.4426   -0.5431   -4.8964 H       1  LIG1        0.0706
     76 H          -4.4193   -1.8150   -5.4314 H       1  LIG1        0.0706
     77 H          -8.6533    2.2423   -9.2176 H       1  LIG1        0.0235
     78 H          -7.3935    1.9231  -10.4109 H       1  LIG1        0.0235
     79 H          -7.8057    3.5439   -9.9858 H       1  LIG1        0.0235
     80 H          -2.7809   -2.9097   -9.4074 H       1  LIG1        0.0276
     81 H          -4.1810   -3.6809  -10.1277 H       1  LIG1        0.0276
     82 H          -5.5191   -6.3596   -7.0912 H       1  LIG1        0.0274
     83 H          -4.1343   -5.5036   -6.4664 H       1  LIG1        0.0274
     84 H          -6.5191    5.1683   -9.7500 H       1  LIG1        0.0342
     85 H          -4.9470    5.5557   -9.0690 H       1  LIG1        0.0342
     86 H          -4.6483   -6.2774   -9.3729 H       1  LIG1        0.0271
     87 H          -3.4807   -7.0015   -8.2852 H       1  LIG1        0.0271
     88 H          -8.9521    4.7250   -8.6724 H       1  LIG1        0.0239
     89 H          -9.2131    5.8919   -7.4038 H       1  LIG1        0.0239
     90 H          -9.7285    4.2236   -7.1615 H       1  LIG1        0.0239
     91 H          -6.6712    4.7754   -4.9760 H       1  LIG1        0.0239
     92 H          -8.4085    4.4214   -4.9276 H       1  LIG1        0.0239
     93 H          -7.8498    6.0243   -5.3706 H       1  LIG1        0.0239
     94 H          -3.0592   -5.5924  -11.1092 H       1  LIG1        0.0235
     95 H          -1.8131   -6.4744  -10.2157 H       1  LIG1        0.0235
     96 H          -1.5407   -4.7893  -10.6863 H       1  LIG1        0.0235
     97 H          -2.1177   -4.5887   -6.9832 H       1  LIG1        0.0235
     98 H          -1.0114   -4.2161   -8.3025 H       1  LIG1        0.0235
     99 H          -1.2829   -5.8947   -7.8255 H       1  LIG1        0.0235
    100 H          -2.0319    2.4353   -4.8680 H       1  LIG1        0.0689
    101 H          -1.4228   -0.5453   -5.4135 H       1  LIG1        0.0626
    102 H          -0.5183    1.7096   -2.9140 H       1  LIG1        0.0660
    103 H           3.4613    0.6978   -5.6824 H       1  LIG1        0.0637
    104 H           3.7157    1.9267   -3.5619 H       1  LIG1        0.0655
    105 H           1.0579   -1.5183   -9.0163 H       1  LIG1        0.0670
    106 H           2.0050   -3.8769   -7.2596 H       1  LIG1        0.0637
@<TRIPOS>BOND
     1     1    41    1
     2     1    28    1
     3     2    34    2
     4     3    38   ar
     5     4    38   ar
     6     5    41    2
     7     6    48    1
     8     7    50    2
     9     8    53   ar
    10     9    53   ar
    11    10    45    1
    12    10    50   am
    13    11    16    1
    14    11    12    1
    15    11    26    1
    16    11    13    1
    17    12    14    1
    18    13    20    1
    19    13    17    1
    20    13    28    1
    21    14    15    1
    22    14    24    1
    23    14    29    1
    24    15    19    1
    25    15    23    1
    26    16    19    1
    27    17    18    1
    28    17    27    2
    29    18    30    1
    30    18    22    1
    31    20    25    1
    32    21    27    1
    33    21    12    1
    34    22    31    1
    35    22    25    1
    36    22    38    1
    37    23    34    1
    38    23    37    1
    39    23    36    1
    40    24    32    1
    41    30    33    1
    42    31    35    1
    43    32    34    1
    44    33    35    1
    45    33    40    1
    46    33    39    1
    47    41    42    1
    48    42    43    2
    49    43    44    1
    50    44    46   ar
    51    44    45   ar
    52    45    47   ar
    53    46    48   ar
    54    47    49   ar
    55    48    49   ar
    56    50    51    1
    57    51    52    2
    58    52    53    1
    59     6    54    1
    60    10    55    1
    61    12    56    1
    62    15    57    1
    63    16    58    1
    64    16    59    1
    65    18    60    1
    66    19    61    1
    67    19    62    1
    68    20    63    1
    69    20    64    1
    70    21    65    1
    71    21    66    1
    72    24    67    1
    73    24    68    1
    74    25    69    1
    75    25    70    1
    76    26    71    1
    77    26    72    1
    78    26    73    1
    79    27    74    1
    80    28    75    1
    81    28    76    1
    82    29    77    1
    83    29    78    1
    84    29    79    1
    85    30    80    1
    86    30    81    1
    87    31    82    1
    88    31    83    1
    89    32    84    1
    90    32    85    1
    91    35    86    1
    92    35    87    1
    93    36    88    1
    94    36    89    1
    95    36    90    1
    96    37    91    1
    97    37    92    1
    98    37    93    1
    99    39    94    1
   100    39    95    1
   101    39    96    1
   102    40    97    1
   103    40    98    1
   104    40    99    1
   105    42   100    1
   106    43   101    1
   107    46   102    1
   108    47   103    1
   109    49   104    1
   110    51   105    1
   111    52   106    1
@<TRIPOS>MOLECULE
11672244
 106 111 0 0 0
SMALL
GASTEIGER

@<TRIPOS>ATOM
      1 O          -4.9737   -0.1487   -4.7674 O.3     1  LIG1       -0.4607
      2 O          -6.3336    6.5842   -7.1667 O.2     1  LIG1       -0.2968
      3 O          -6.6320   -4.1249   -9.6155 O.co2   1  LIG1       -0.5492
      4 O          -7.4818   -5.3545   -7.9092 O.co2   1  LIG1       -0.5492
      5 O          -4.7452   -2.0149   -3.4292 O.2     1  LIG1       -0.2456
      6 O          -2.1808    2.5757    1.8066 O.3     1  LIG1       -0.5067
      7 O          -1.5544    0.5771   -4.4291 O.2     1  LIG1       -0.2705
      8 O           2.6120   -1.7367   -6.1534 O.co2   1  LIG1       -0.5452
      9 O           1.6968   -3.7986   -5.7833 O.co2   1  LIG1       -0.5452
     10 N          -0.0526    0.0845   -2.7002 N.am    1  LIG1       -0.2815
     11 C          -6.7819    0.0022   -7.3858 C.3     1  LIG1       -0.0160
     12 C          -5.9242    1.0699   -8.1621 C.3     1  LIG1       -0.0256
     13 C          -5.7854   -1.2311   -6.9518 C.3     1  LIG1        0.0318
     14 C          -6.5592    2.5209   -8.3770 C.3     1  LIG1       -0.0243
     15 C          -7.1114    3.0057   -6.9915 C.3     1  LIG1       -0.0235
     16 C          -7.4919    0.6511   -6.1677 C.3     1  LIG1       -0.0461
     17 C          -5.0255   -1.7550   -8.2030 C.2     1  LIG1       -0.0596
     18 C          -4.4012   -3.1620   -8.0883 C.3     1  LIG1       -0.0080
     19 C          -8.1503    2.0020   -6.4505 C.3     1  LIG1       -0.0483
     20 C          -6.6258   -2.3666   -6.2902 C.3     1  LIG1       -0.0392
     21 C          -5.3216    0.4421   -9.4394 C.3     1  LIG1       -0.0306
     22 C          -5.3888   -4.2219   -7.5468 C.3     1  LIG1        0.0167
     23 C          -7.5532    4.5050   -6.8923 C.3     1  LIG1        0.0267
     24 C          -5.4131    3.4970   -8.7732 C.3     1  LIG1       -0.0404
     25 C          -5.9276   -3.7247   -6.1831 C.3     1  LIG1       -0.0408
     26 C          -7.9219   -0.5500   -8.3064 C.3     1  LIG1       -0.0584
     27 C          -4.8434   -0.9687   -9.2833 C.2     1  LIG1       -0.0835
     28 C          -4.6142   -0.8302   -5.9752 C.3     1  LIG1        0.1025
     29 C          -7.6219    2.5570   -9.5022 C.3     1  LIG1       -0.0590
     30 C          -3.5889   -3.6629   -9.3102 C.3     1  LIG1       -0.0405
     31 C          -4.6420   -5.5597   -7.3039 C.3     1  LIG1       -0.0412
     32 C          -5.8222    4.9615   -8.8145 C.3     1  LIG1        0.0069
     33 C          -2.8685   -5.0106   -9.0733 C.3     1  LIG1       -0.0343
     34 C          -6.5098    5.4245   -7.5528 C.2     1  LIG1        0.1392
     35 C          -3.8646   -6.0508   -8.5261 C.3     1  LIG1       -0.0470
     36 C          -8.9246    4.8172   -7.5094 C.3     1  LIG1       -0.0528
     37 C          -7.6231    4.9125   -5.3955 C.3     1  LIG1       -0.0528
     38 C          -6.6166   -4.5951   -8.4438 C.2     1  LIG1        0.0485
     39 C          -2.3046   -5.5160  -10.4154 C.3     1  LIG1       -0.0598
     40 C          -1.6761   -4.8308   -8.1080 C.3     1  LIG1       -0.0598
     41 C          -4.6690   -0.8151   -3.6322 C.2     1  LIG1        0.3320
     42 C          -4.0528    0.1534   -2.7069 C.2     1  LIG1        0.0231
     43 C          -2.9636   -0.2764   -2.0505 C.2     1  LIG1       -0.0460
     44 C          -2.0643    0.6071   -1.3017 C.ar    1  LIG1       -0.0001
     45 C          -0.6836    0.6820   -1.5841 C.ar    1  LIG1        0.0411
     46 C          -2.5727    1.2546   -0.1615 C.ar    1  LIG1       -0.0113
     47 C           0.1637    1.3542   -0.6893 C.ar    1  LIG1       -0.0364
     48 C          -1.7163    1.9493    0.6873 C.ar    1  LIG1        0.1175
     49 C          -0.3534    1.9998    0.4352 C.ar    1  LIG1       -0.0184
     50 C          -0.5458    0.0435   -3.9921 C.2     1  LIG1        0.2411
     51 C           0.4345   -0.5857   -4.9016 C.2     1  LIG1        0.0021
     52 C           0.6088   -1.9171   -4.9109 C.2     1  LIG1       -0.0344
     53 C           1.7374   -2.5397   -5.7207 C.2     1  LIG1        0.0647
     54 H          -3.1411    2.4309    1.8545 H       1  LIG1        0.2921
     55 H           0.9383   -0.1041   -2.6319 H       1  LIG1        0.1551
     56 H          -5.0658    1.2719   -7.5068 H       1  LIG1        0.0315
     57 H          -6.2489    2.9369   -6.3070 H       1  LIG1        0.0315
     58 H          -6.7950    0.8400   -5.3555 H       1  LIG1        0.0271
     59 H          -8.2460   -0.0303   -5.7549 H       1  LIG1        0.0271
     60 H          -3.6346   -3.0372   -7.3114 H       1  LIG1        0.0355
     61 H          -8.9987    1.8803   -7.1289 H       1  LIG1        0.0269
     62 H          -8.5754    2.3546   -5.5057 H       1  LIG1        0.0269
     63 H          -7.5473   -2.5498   -6.8467 H       1  LIG1        0.0275
     64 H          -6.9444   -2.0565   -5.2880 H       1  LIG1        0.0275
     65 H          -6.0416    0.4316  -10.2615 H       1  LIG1        0.0310
     66 H          -4.4694    1.0453   -9.7724 H       1  LIG1        0.0310
     67 H          -5.0064    3.2299   -9.7557 H       1  LIG1        0.0275
     68 H          -4.5859    3.3969   -8.0574 H       1  LIG1        0.0275
     69 H          -6.6314   -4.4453   -5.7473 H       1  LIG1        0.0275
     70 H          -5.1045   -3.6569   -5.4629 H       1  LIG1        0.0275
     71 H          -8.4781    0.2367   -8.8087 H       1  LIG1        0.0235
     72 H          -8.6744   -1.1035   -7.7349 H       1  LIG1        0.0235
     73 H          -7.5552   -1.2216   -9.0873 H       1  LIG1        0.0235
     74 H          -4.3166   -1.3557  -10.1503 H       1  LIG1        0.0572
     75 H          -3.9933   -1.6997   -5.7289 H       1  LIG1        0.0706
     76 H          -3.9188   -0.1537   -6.4862 H       1  LIG1        0.0706
     77 H          -8.6035    2.2097   -9.1804 H       1  LIG1        0.0235
     78 H          -7.3305    1.9707  -10.3752 H       1  LIG1        0.0235
     79 H          -7.7853    3.5619   -9.8951 H       1  LIG1        0.0235
     80 H          -2.8306   -2.9139   -9.5771 H       1  LIG1        0.0276
     81 H          -4.2460   -3.7517  -10.1833 H       1  LIG1        0.0276
     82 H          -5.3355   -6.3508   -6.9922 H       1  LIG1        0.0274
     83 H          -3.9436   -5.4440   -6.4646 H       1  LIG1        0.0274
     84 H          -6.4790    5.1806   -9.6613 H       1  LIG1        0.0342
     85 H          -4.9197    5.5695   -8.9508 H       1  LIG1        0.0342
     86 H          -4.5791   -6.3277   -9.3112 H       1  LIG1        0.0271
     87 H          -3.3336   -6.9744   -8.2608 H       1  LIG1        0.0271
     88 H          -8.9388    4.7081   -8.5940 H       1  LIG1        0.0239
     89 H          -9.2081    5.8591   -7.3142 H       1  LIG1        0.0239
     90 H          -9.7137    4.1853   -7.0899 H       1  LIG1        0.0239
     91 H          -6.6637    4.7405   -4.8938 H       1  LIG1        0.0239
     92 H          -8.3962    4.3626   -4.8513 H       1  LIG1        0.0239
     93 H          -7.8581    5.9773   -5.2773 H       1  LIG1        0.0239
     94 H          -3.1017   -5.6697  -11.1506 H       1  LIG1        0.0235
     95 H          -1.7791   -6.4699  -10.2906 H       1  LIG1        0.0235
     96 H          -1.5944   -4.7974  -10.8416 H       1  LIG1        0.0235
     97 H          -1.9818   -4.4843   -7.1174 H       1  LIG1        0.0235
     98 H          -0.9603   -4.1004   -8.5028 H       1  LIG1        0.0235
     99 H          -1.1393   -5.7762   -7.9698 H       1  LIG1        0.0235
    100 H          -4.3644    1.1825   -2.7491 H       1  LIG1        0.0689
    101 H          -2.6221   -1.3058   -2.1560 H       1  LIG1        0.0626
    102 H          -3.6304    1.1718    0.0714 H       1  LIG1        0.0660
    103 H           1.2322    1.4132   -0.8817 H       1  LIG1        0.0637
    104 H           0.3075    2.5370    1.1086 H       1  LIG1        0.0655
    105 H           1.0485    0.0821   -5.4940 H       1  LIG1        0.0670
    106 H          -0.0297   -2.5834   -4.3410 H       1  LIG1        0.0637
@<TRIPOS>BOND
     1     1    41    1
     2     1    28    1
     3     2    34    2
     4     3    38   ar
     5     4    38   ar
     6     5    41    2
     7     6    48    1
     8     7    50    2
     9     8    53   ar
    10     9    53   ar
    11    10    45    1
    12    10    50   am
    13    11    16    1
    14    11    12    1
    15    11    26    1
    16    11    13    1
    17    12    14    1
    18    13    20    1
    19    13    17    1
    20    13    28    1
    21    14    15    1
    22    14    24    1
    23    14    29    1
    24    15    19    1
    25    15    23    1
    26    16    19    1
    27    17    18    1
    28    17    27    2
    29    18    30    1
    30    18    22    1
    31    20    25    1
    32    21    27    1
    33    21    12    1
    34    22    31    1
    35    22    25    1
    36    22    38    1
    37    23    34    1
    38    23    37    1
    39    23    36    1
    40    24    32    1
    41    30    33    1
    42    31    35    1
    43    32    34    1
    44    33    35    1
    45    33    40    1
    46    33    39    1
    47    41    42    1
    48    42    43    2
    49    43    44    1
    50    44    46   ar
    51    44    45   ar
    52    45    47   ar
    53    46    48   ar
    54    47    49   ar
    55    48    49   ar
    56    50    51    1
    57    51    52    2
    58    52    53    1
    59     6    54    1
    60    10    55    1
    61    12    56    1
    62    15    57    1
    63    16    58    1
    64    16    59    1
    65    18    60    1
    66    19    61    1
    67    19    62    1
    68    20    63    1
    69    20    64    1
    70    21    65    1
    71    21    66    1
    72    24    67    1
    73    24    68    1
    74    25    69    1
    75    25    70    1
    76    26    71    1
    77    26    72    1
    78    26    73    1
    79    27    74    1
    80    28    75    1
    81    28    76    1
    82    29    77    1
    83    29    78    1
    84    29    79    1
    85    30    80    1
    86    30    81    1
    87    31    82    1
    88    31    83    1
    89    32    84    1
    90    32    85    1
    91    35    86    1
    92    35    87    1
    93    36    88    1
    94    36    89    1
    95    36    90    1
    96    37    91    1
    97    37    92    1
    98    37    93    1
    99    39    94    1
   100    39    95    1
   101    39    96    1
   102    40    97    1
   103    40    98    1
   104    40    99    1
   105    42   100    1
   106    43   101    1
   107    46   102    1
   108    47   103    1
   109    49   104    1
   110    51   105    1
   111    52   106    1
@<TRIPOS>MOLECULE
11672244
 106 111 0 0 0
SMALL
GASTEIGER

@<TRIPOS>ATOM
      1 O          -3.7972   -0.0494   -6.0811 O.3     1  LIG1       -0.4607
      2 O          -6.3261    6.6033   -7.2241 O.2     1  LIG1       -0.2968
      3 O          -6.5592   -4.1321   -9.6395 O.co2   1  LIG1       -0.5492
      4 O          -7.2864   -5.5818   -8.0519 O.co2   1  LIG1       -0.5492
      5 O          -4.4323    1.5446   -4.5500 O.2     1  LIG1       -0.2456
      6 O           2.0584    0.0380   -2.0138 O.3     1  LIG1       -0.5067
      7 O          -0.0884    0.3684   -8.2323 O.2     1  LIG1       -0.2705
      8 O           1.2144    4.1191  -11.3755 O.co2   1  LIG1       -0.5452
      9 O           2.3753    2.4515  -12.4223 O.co2   1  LIG1       -0.5452
     10 N           1.0335    2.0795   -7.0948 N.am    1  LIG1       -0.2815
     11 C          -6.8291    0.0206   -7.4243 C.3     1  LIG1       -0.0160
     12 C          -5.9508    1.0770   -8.1905 C.3     1  LIG1       -0.0256
     13 C          -5.8798   -1.2408   -6.9732 C.3     1  LIG1        0.0318
     14 C          -6.5723    2.5333   -8.4166 C.3     1  LIG1       -0.0243
     15 C          -7.1184    3.0313   -7.0327 C.3     1  LIG1       -0.0235
     16 C          -7.5092    0.6821   -6.1962 C.3     1  LIG1       -0.0461
     17 C          -5.0239   -1.7337   -8.1631 C.2     1  LIG1       -0.0596
     18 C          -4.3805   -3.1289   -8.0194 C.3     1  LIG1       -0.0080
     19 C          -8.1578    2.0372   -6.4756 C.3     1  LIG1       -0.0483
     20 C          -6.7868   -2.4146   -6.4592 C.3     1  LIG1       -0.0392
     21 C          -5.3308    0.4390   -9.4498 C.3     1  LIG1       -0.0306
     22 C          -5.3642   -4.2294   -7.5433 C.3     1  LIG1        0.0167
     23 C          -7.5547    4.5320   -6.9438 C.3     1  LIG1        0.0267
     24 C          -5.4202    3.5002   -8.8195 C.3     1  LIG1       -0.0404
     25 C          -6.0689   -3.7539   -6.2529 C.3     1  LIG1       -0.0408
     26 C          -7.9753   -0.4984   -8.3509 C.3     1  LIG1       -0.0584
     27 C          -4.8186   -0.9533   -9.2439 C.2     1  LIG1       -0.0835
     28 C          -4.9081   -0.9070   -5.7766 C.3     1  LIG1        0.1025
     29 C          -7.6349    2.5704   -9.5415 C.3     1  LIG1       -0.0590
     30 C          -3.5145   -3.6092   -9.2148 C.3     1  LIG1       -0.0405
     31 C          -4.5620   -5.5168   -7.2237 C.3     1  LIG1       -0.0412
     32 C          -5.8185    4.9687   -8.8656 C.3     1  LIG1        0.0069
     33 C          -2.7731   -4.9454   -8.9719 C.3     1  LIG1       -0.0343
     34 C          -6.5052    5.4417   -7.6071 C.2     1  LIG1        0.1392
     35 C          -3.7396   -6.0091   -8.4167 C.3     1  LIG1       -0.0470
     36 C          -8.9227    4.8451   -7.5678 C.3     1  LIG1       -0.0528
     37 C          -7.6275    4.9493   -5.4497 C.3     1  LIG1       -0.0528
     38 C          -6.5111   -4.6870   -8.5088 C.2     1  LIG1        0.0485
     39 C          -2.1985   -5.4451  -10.3127 C.3     1  LIG1       -0.0598
     40 C          -1.5883   -4.7346   -8.0069 C.3     1  LIG1       -0.0598
     41 C          -3.5928    0.9921   -5.2488 C.2     1  LIG1        0.3320
     42 C          -2.1585    1.3180   -5.1120 C.2     1  LIG1        0.0231
     43 C          -1.1639    0.5424   -5.5735 C.2     1  LIG1       -0.0460
     44 C           0.2197    0.7600   -5.1284 C.ar    1  LIG1       -0.0001
     45 C           1.1831    1.5312   -5.8055 C.ar    1  LIG1        0.0411
     46 C           0.5256    0.2468   -3.8504 C.ar    1  LIG1       -0.0113
     47 C           2.3946    1.8306   -5.1555 C.ar    1  LIG1       -0.0364
     48 C           1.7487    0.5227   -3.2489 C.ar    1  LIG1        0.1175
     49 C           2.6811    1.3215   -3.8876 C.ar    1  LIG1       -0.0184
     50 C           0.4070    1.4826   -8.1738 C.2     1  LIG1        0.2411
     51 C           0.5485    2.3527   -9.3620 C.2     1  LIG1        0.0021
     52 C           1.3237    1.9714  -10.3867 C.2     1  LIG1       -0.0344
     53 C           1.6468    2.9404  -11.5145 C.2     1  LIG1        0.0647
     54 H           1.3340   -0.5475   -1.7306 H       1  LIG1        0.2921
     55 H           1.6795    2.8149   -7.3575 H       1  LIG1        0.1551
     56 H          -5.1015    1.2754   -7.5289 H       1  LIG1        0.0315
     57 H          -6.2533    2.9661   -6.3517 H       1  LIG1        0.0315
     58 H          -6.7844    0.8591   -5.4003 H       1  LIG1        0.0271
     59 H          -8.2639    0.0113   -5.7682 H       1  LIG1        0.0271
     60 H          -3.6577   -2.9876   -7.2025 H       1  LIG1        0.0355
     61 H          -9.0143    1.9202   -7.1449 H       1  LIG1        0.0269
     62 H          -8.5691    2.3956   -5.5272 H       1  LIG1        0.0269
     63 H          -7.6039   -2.6186   -7.1548 H       1  LIG1        0.0275
     64 H          -7.2604   -2.1278   -5.5120 H       1  LIG1        0.0275
     65 H          -6.0455    0.3935  -10.2757 H       1  LIG1        0.0310
     66 H          -4.4898    1.0524   -9.7922 H       1  LIG1        0.0310
     67 H          -5.0192    3.2272   -9.8027 H       1  LIG1        0.0275
     68 H          -4.5914    3.3960   -8.1062 H       1  LIG1        0.0275
     69 H          -6.8045   -4.4888   -5.9017 H       1  LIG1        0.0275
     70 H          -5.3455   -3.6759   -5.4335 H       1  LIG1        0.0275
     71 H          -8.5110    0.2979   -8.8583 H       1  LIG1        0.0235
     72 H          -8.7451   -1.0302   -7.7809 H       1  LIG1        0.0235
     73 H          -7.6138   -1.1787   -9.1277 H       1  LIG1        0.0235
     74 H          -4.2351   -1.3250  -10.0814 H       1  LIG1        0.0572
     75 H          -5.4638   -0.5679   -4.8965 H       1  LIG1        0.0706
     76 H          -4.4205   -1.8227   -5.4299 H       1  LIG1        0.0706
     77 H          -8.6279    2.2706   -9.2054 H       1  LIG1        0.0235
     78 H          -7.3662    1.9420  -10.3926 H       1  LIG1        0.0235
     79 H          -7.7647    3.5664   -9.9683 H       1  LIG1        0.0235
     80 H          -2.7632   -2.8441   -9.4538 H       1  LIG1        0.0276
     81 H          -4.1429   -3.7049  -10.1084 H       1  LIG1        0.0276
     82 H          -5.2207   -6.3301   -6.8942 H       1  LIG1        0.0274
     83 H          -3.8894   -5.3312   -6.3765 H       1  LIG1        0.0274
     84 H          -6.4732    5.1897   -9.7133 H       1  LIG1        0.0342
     85 H          -4.9117    5.5700   -9.0032 H       1  LIG1        0.0342
     86 H          -4.4258   -6.3340   -9.2094 H       1  LIG1        0.0271
     87 H          -3.1804   -6.9050   -8.1179 H       1  LIG1        0.0271
     88 H          -8.9322    4.7293   -8.6521 H       1  LIG1        0.0239
     89 H          -9.2038    5.8890   -7.3795 H       1  LIG1        0.0239
     90 H          -9.7154    4.2182   -7.1477 H       1  LIG1        0.0239
     91 H          -6.6714    4.7723   -4.9432 H       1  LIG1        0.0239
     92 H          -8.4074    4.4094   -4.9052 H       1  LIG1        0.0239
     93 H          -7.8545    6.0166   -5.3386 H       1  LIG1        0.0239
     94 H          -2.9940   -5.6167  -11.0468 H       1  LIG1        0.0235
     95 H          -1.6565   -6.3889  -10.1844 H       1  LIG1        0.0235
     96 H          -1.5032   -4.7150  -10.7424 H       1  LIG1        0.0235
     97 H          -1.9054   -4.3778   -7.0232 H       1  LIG1        0.0235
     98 H          -0.8816   -3.9991   -8.4086 H       1  LIG1        0.0235
     99 H          -1.0369   -5.6693   -7.8534 H       1  LIG1        0.0235
    100 H          -1.9596    2.1698   -4.4708 H       1  LIG1        0.0689
    101 H          -1.3401   -0.3378   -6.1868 H       1  LIG1        0.0626
    102 H          -0.2172   -0.3506   -3.3276 H       1  LIG1        0.0660
    103 H           3.1493    2.4351   -5.6529 H       1  LIG1        0.0637
    104 H           3.6321    1.5400   -3.4116 H       1  LIG1        0.0655
    105 H           0.1131    3.3449   -9.3088 H       1  LIG1        0.0670
    106 H           1.7788    0.9872  -10.4170 H       1  LIG1        0.0637
@<TRIPOS>BOND
     1     1    41    1
     2     1    28    1
     3     2    34    2
     4     3    38   ar
     5     4    38   ar
     6     5    41    2
     7     6    48    1
     8     7    50    2
     9     8    53   ar
    10     9    53   ar
    11    10    45    1
    12    10    50   am
    13    11    16    1
    14    11    12    1
    15    11    26    1
    16    11    13    1
    17    12    14    1
    18    13    20    1
    19    13    17    1
    20    13    28    1
    21    14    15    1
    22    14    24    1
    23    14    29    1
    24    15    19    1
    25    15    23    1
    26    16    19    1
    27    17    18    1
    28    17    27    2
    29    18    30    1
    30    18    22    1
    31    20    25    1
    32    21    27    1
    33    21    12    1
    34    22    31    1
    35    22    25    1
    36    22    38    1
    37    23    34    1
    38    23    37    1
    39    23    36    1
    40    24    32    1
    41    30    33    1
    42    31    35    1
    43    32    34    1
    44    33    35    1
    45    33    40    1
    46    33    39    1
    47    41    42    1
    48    42    43    2
    49    43    44    1
    50    44    46   ar
    51    44    45   ar
    52    45    47   ar
    53    46    48   ar
    54    47    49   ar
    55    48    49   ar
    56    50    51    1
    57    51    52    2
    58    52    53    1
    59     6    54    1
    60    10    55    1
    61    12    56    1
    62    15    57    1
    63    16    58    1
    64    16    59    1
    65    18    60    1
    66    19    61    1
    67    19    62    1
    68    20    63    1
    69    20    64    1
    70    21    65    1
    71    21    66    1
    72    24    67    1
    73    24    68    1
    74    25    69    1
    75    25    70    1
    76    26    71    1
    77    26    72    1
    78    26    73    1
    79    27    74    1
    80    28    75    1
    81    28    76    1
    82    29    77    1
    83    29    78    1
    84    29    79    1
    85    30    80    1
    86    30    81    1
    87    31    82    1
    88    31    83    1
    89    32    84    1
    90    32    85    1
    91    35    86    1
    92    35    87    1
    93    36    88    1
    94    36    89    1
    95    36    90    1
    96    37    91    1
    97    37    92    1
    98    37    93    1
    99    39    94    1
   100    39    95    1
   101    39    96    1
   102    40    97    1
   103    40    98    1
   104    40    99    1
   105    42   100    1
   106    43   101    1
   107    46   102    1
   108    47   103    1
   109    49   104    1
   110    51   105    1
   111    52   106    1
@<TRIPOS>MOLECULE
11672244
 106 111 0 0 0
SMALL
GASTEIGER

@<TRIPOS>ATOM
      1 O          -3.7754    0.0443   -6.1382 O.3     1  LIG1       -0.4607
      2 O          -6.4206    6.6292   -7.3413 O.2     1  LIG1       -0.2968
      3 O          -6.3844   -4.1025   -9.7798 O.co2   1  LIG1       -0.5492
      4 O          -7.2561   -5.4662   -8.1924 O.co2   1  LIG1       -0.5492
      5 O          -4.6819    1.7911   -4.9419 O.2     1  LIG1       -0.2456
      6 O           2.4315    4.1735   -4.4841 O.3     1  LIG1       -0.5067
      7 O          -2.2957    0.0149   -2.5212 O.2     1  LIG1       -0.2705
      8 O          -4.5948    0.3419    1.9803 O.co2   1  LIG1       -0.5452
      9 O          -6.3494    1.3648    0.9315 O.co2   1  LIG1       -0.5452
     10 N          -1.4618    1.8132   -1.2743 N.am    1  LIG1       -0.2815
     11 C          -6.8264    0.0289   -7.4944 C.3     1  LIG1       -0.0160
     12 C          -5.9715    1.0948   -8.2700 C.3     1  LIG1       -0.0256
     13 C          -5.8422   -1.2030   -7.0300 C.3     1  LIG1        0.0318
     14 C          -6.6115    2.5416   -8.4933 C.3     1  LIG1       -0.0243
     15 C          -7.1622    3.0337   -7.1100 C.3     1  LIG1       -0.0235
     16 C          -7.5418    0.6744   -6.2771 C.3     1  LIG1       -0.0461
     17 C          -4.9739   -1.6880   -8.2205 C.2     1  LIG1       -0.0596
     18 C          -4.3142   -3.0772   -8.0683 C.3     1  LIG1       -0.0080
     19 C          -8.1925    2.0300   -6.5540 C.3     1  LIG1       -0.0483
     20 C          -6.7302   -2.3875   -6.5047 C.3     1  LIG1       -0.0392
     21 C          -5.3499    0.4582   -9.5299 C.3     1  LIG1       -0.0306
     22 C          -5.3053   -4.1813   -7.6184 C.3     1  LIG1        0.0167
     23 C          -7.6042    4.5330   -7.0112 C.3     1  LIG1        0.0267
     24 C          -5.4697    3.5192   -8.8956 C.3     1  LIG1       -0.0404
     25 C          -6.0052   -3.7233   -6.3204 C.3     1  LIG1       -0.0408
     26 C          -7.9543   -0.5254   -8.4259 C.3     1  LIG1       -0.0584
     27 C          -4.7942   -0.9168   -9.3127 C.2     1  LIG1       -0.0835
     28 C          -4.8712   -0.8398   -5.8363 C.3     1  LIG1        0.1025
     29 C          -7.6748    2.5663   -9.6163 C.3     1  LIG1       -0.0590
     30 C          -3.4198   -3.5461   -9.2487 C.3     1  LIG1       -0.0405
     31 C          -4.5209   -5.4811   -7.3102 C.3     1  LIG1       -0.0412
     32 C          -5.8865    4.9802   -8.9489 C.3     1  LIG1        0.0069
     33 C          -2.6969   -4.8949   -9.0129 C.3     1  LIG1       -0.0343
     34 C          -6.5778    5.4546   -7.6942 C.2     1  LIG1        0.1392
     35 C          -3.6817   -5.9602   -8.4945 C.3     1  LIG1       -0.0470
     36 C          -8.9867    4.8341   -7.6077 C.3     1  LIG1       -0.0528
     37 C          -7.6476    4.9490   -5.5156 C.3     1  LIG1       -0.0528
     38 C          -6.4254   -4.6139   -8.6249 C.2     1  LIG1        0.0485
     39 C          -2.1032   -5.3822  -10.3500 C.3     1  LIG1       -0.0598
     40 C          -1.5300   -4.7117   -8.0217 C.3     1  LIG1       -0.0598
     41 C          -3.7318    1.1809   -5.4044 C.2     1  LIG1        0.3320
     42 C          -2.3188    1.5347   -5.1657 C.2     1  LIG1        0.0231
     43 C          -2.0782    2.3686   -4.1426 C.2     1  LIG1       -0.0460
     44 C          -0.7560    2.5907   -3.5471 C.ar    1  LIG1       -0.0001
     45 C          -0.5313    2.3964   -2.1646 C.ar    1  LIG1        0.0411
     46 C           0.2470    3.1808   -4.3344 C.ar    1  LIG1       -0.0113
     47 C           0.6658    2.8527   -1.5935 C.ar    1  LIG1       -0.0364
     48 C           1.4438    3.5856   -3.7484 C.ar    1  LIG1        0.1175
     49 C           1.6577    3.4318   -2.3861 C.ar    1  LIG1       -0.0184
     50 C          -2.3012    0.7461   -1.5412 C.2     1  LIG1        0.2411
     51 C          -3.1609    0.4615   -0.3749 C.2     1  LIG1        0.0021
     52 C          -4.3577    1.0544   -0.2627 C.2     1  LIG1       -0.0344
     53 C          -5.1858    0.8818    1.0027 C.2     1  LIG1        0.0647
     54 H           2.1317    4.2193   -5.4070 H       1  LIG1        0.2921
     55 H          -1.3877    2.0560   -0.2941 H       1  LIG1        0.1551
     56 H          -5.1186    1.3061   -7.6206 H       1  LIG1        0.0315
     57 H          -6.2980    2.9755   -6.4322 H       1  LIG1        0.0315
     58 H          -6.8467    0.8362   -5.4546 H       1  LIG1        0.0271
     59 H          -8.3047   -0.0050   -5.8772 H       1  LIG1        0.0271
     60 H          -3.6077   -2.9355   -7.2375 H       1  LIG1        0.0355
     61 H          -9.0478    1.9093   -7.2244 H       1  LIG1        0.0269
     62 H          -8.6071    2.3853   -5.6055 H       1  LIG1        0.0269
     63 H          -7.5590   -2.5958   -7.1841 H       1  LIG1        0.0275
     64 H          -7.1886   -2.1076   -5.5478 H       1  LIG1        0.0275
     65 H          -6.0748    0.3838  -10.3450 H       1  LIG1        0.0310
     66 H          -4.5304    1.0890   -9.8915 H       1  LIG1        0.0310
     67 H          -5.0622    3.2481   -9.8766 H       1  LIG1        0.0275
     68 H          -4.6419    3.4285   -8.1794 H       1  LIG1        0.0275
     69 H          -6.7340   -4.4681   -5.9758 H       1  LIG1        0.0275
     70 H          -5.2774   -3.6464   -5.5040 H       1  LIG1        0.0275
     71 H          -8.4915    0.2544   -8.9571 H       1  LIG1        0.0235
     72 H          -8.7260   -1.0554   -7.8566 H       1  LIG1        0.0235
     73 H          -7.5745   -1.2176   -9.1829 H       1  LIG1        0.0235
     74 H          -4.2208   -1.2955  -10.1530 H       1  LIG1        0.0572
     75 H          -5.4285   -0.5093   -4.9534 H       1  LIG1        0.0706
     76 H          -4.3654   -1.7456   -5.4877 H       1  LIG1        0.0706
     77 H          -8.6557    2.2220   -9.2879 H       1  LIG1        0.0235
     78 H          -7.3805    1.9682  -10.4811 H       1  LIG1        0.0235
     79 H          -7.8424    3.5669  -10.0180 H       1  LIG1        0.0235
     80 H          -2.6596   -2.7800   -9.4546 H       1  LIG1        0.0276
     81 H          -4.0211   -3.6215  -10.1622 H       1  LIG1        0.0276
     82 H          -5.1956   -6.2925   -7.0090 H       1  LIG1        0.0274
     83 H          -3.8623   -5.3195   -6.4471 H       1  LIG1        0.0274
     84 H          -6.5434    5.1885   -9.7981 H       1  LIG1        0.0342
     85 H          -4.9867    5.5911   -9.0904 H       1  LIG1        0.0342
     86 H          -4.3551   -6.2682   -9.3046 H       1  LIG1        0.0271
     87 H          -3.1354   -6.8655   -8.1996 H       1  LIG1        0.0271
     88 H          -9.0194    4.7022   -8.6896 H       1  LIG1        0.0239
     89 H          -9.2670    5.8794   -7.4263 H       1  LIG1        0.0239
     90 H          -9.7674    4.2102   -7.1615 H       1  LIG1        0.0239
     91 H          -6.6775    4.7851   -5.0317 H       1  LIG1        0.0239
     92 H          -8.4062    4.3973   -4.9532 H       1  LIG1        0.0239
     93 H          -7.8857    6.0132   -5.3989 H       1  LIG1        0.0239
     94 H          -2.8877   -5.5376  -11.0995 H       1  LIG1        0.0235
     95 H          -1.5729   -6.3330  -10.2246 H       1  LIG1        0.0235
     96 H          -1.3942   -4.6534  -10.7582 H       1  LIG1        0.0235
     97 H          -1.8635   -4.3600   -7.0415 H       1  LIG1        0.0235
     98 H          -0.8045   -3.9828   -8.4012 H       1  LIG1        0.0235
     99 H          -0.9957   -5.6560   -7.8665 H       1  LIG1        0.0235
    100 H          -1.5516    0.9737   -5.6793 H       1  LIG1        0.0689
    101 H          -2.9052    2.8155   -3.5905 H       1  LIG1        0.0626
    102 H           0.0639    3.3564   -5.3902 H       1  LIG1        0.0660
    103 H           0.8509    2.7269   -0.5299 H       1  LIG1        0.0637
    104 H           2.5908    3.7607   -1.9390 H       1  LIG1        0.0655
    105 H          -2.7524   -0.1752    0.4002 H       1  LIG1        0.0670
    106 H          -4.7644    1.6775   -1.0529 H       1  LIG1        0.0637
@<TRIPOS>BOND
     1     1    41    1
     2     1    28    1
     3     2    34    2
     4     3    38   ar
     5     4    38   ar
     6     5    41    2
     7     6    48    1
     8     7    50    2
     9     8    53   ar
    10     9    53   ar
    11    10    45    1
    12    10    50   am
    13    11    16    1
    14    11    12    1
    15    11    26    1
    16    11    13    1
    17    12    14    1
    18    13    20    1
    19    13    17    1
    20    13    28    1
    21    14    15    1
    22    14    24    1
    23    14    29    1
    24    15    19    1
    25    15    23    1
    26    16    19    1
    27    17    18    1
    28    17    27    2
    29    18    30    1
    30    18    22    1
    31    20    25    1
    32    21    27    1
    33    21    12    1
    34    22    31    1
    35    22    25    1
    36    22    38    1
    37    23    34    1
    38    23    37    1
    39    23    36    1
    40    24    32    1
    41    30    33    1
    42    31    35    1
    43    32    34    1
    44    33    35    1
    45    33    40    1
    46    33    39    1
    47    41    42    1
    48    42    43    2
    49    43    44    1
    50    44    46   ar
    51    44    45   ar
    52    45    47   ar
    53    46    48   ar
    54    47    49   ar
    55    48    49   ar
    56    50    51    1
    57    51    52    2
    58    52    53    1
    59     6    54    1
    60    10    55    1
    61    12    56    1
    62    15    57    1
    63    16    58    1
    64    16    59    1
    65    18    60    1
    66    19    61    1
    67    19    62    1
    68    20    63    1
    69    20    64    1
    70    21    65    1
    71    21    66    1
    72    24    67    1
    73    24    68    1
    74    25    69    1
    75    25    70    1
    76    26    71    1
    77    26    72    1
    78    26    73    1
    79    27    74    1
    80    28    75    1
    81    28    76    1
    82    29    77    1
    83    29    78    1
    84    29    79    1
    85    30    80    1
    86    30    81    1
    87    31    82    1
    88    31    83    1
    89    32    84    1
    90    32    85    1
    91    35    86    1
    92    35    87    1
    93    36    88    1
    94    36    89    1
    95    36    90    1
    96    37    91    1
    97    37    92    1
    98    37    93    1
    99    39    94    1
   100    39    95    1
   101    39    96    1
   102    40    97    1
   103    40    98    1
   104    40    99    1
   105    42   100    1
   106    43   101    1
   107    46   102    1
   108    47   103    1
   109    49   104    1
   110    51   105    1
   111    52   106    1
@<TRIPOS>MOLECULE
11672244
 106 111 0 0 0
SMALL
GASTEIGER

@<TRIPOS>ATOM
      1 O          -4.8457    0.0007   -4.8994 O.3     1  LIG1       -0.4607
      2 O          -6.2692    6.5511   -7.1012 O.2     1  LIG1       -0.2968
      3 O          -6.5638   -4.1221   -9.6867 O.co2   1  LIG1       -0.5492
      4 O          -7.4855   -5.3198   -7.9953 O.co2   1  LIG1       -0.5492
      5 O          -5.0861   -1.7594   -3.4242 O.2     1  LIG1       -0.2456
      6 O          -2.9913    3.7221    1.2931 O.3     1  LIG1       -0.5067
      7 O          -1.1539   -0.5915   -3.2121 O.2     1  LIG1       -0.2705
      8 O           1.8715   -4.5904   -2.5283 O.co2   1  LIG1       -0.5452
      9 O           0.4319   -5.7820   -1.2095 O.co2   1  LIG1       -0.5452
     10 N          -0.7841   -0.8782   -0.9255 N.am    1  LIG1       -0.2815
     11 C          -6.7639   -0.0094   -7.4032 C.3     1  LIG1       -0.0160
     12 C          -5.9008    1.0617   -8.1647 C.3     1  LIG1       -0.0256
     13 C          -5.7689   -1.2408   -6.9743 C.3     1  LIG1        0.0318
     14 C          -6.5362    2.5131   -8.3692 C.3     1  LIG1       -0.0243
     15 C          -7.0883    2.9869   -6.9790 C.3     1  LIG1       -0.0235
     16 C          -7.4898    0.6211   -6.1835 C.3     1  LIG1       -0.0461
     17 C          -5.0098   -1.7636   -8.2280 C.2     1  LIG1       -0.0596
     18 C          -4.3841   -3.1687   -8.1091 C.3     1  LIG1       -0.0080
     19 C          -8.1321    1.9831   -6.4480 C.3     1  LIG1       -0.0483
     20 C          -6.6145   -2.3768   -6.3205 C.3     1  LIG1       -0.0392
     21 C          -5.2964    0.4427   -9.4479 C.3     1  LIG1       -0.0306
     22 C          -5.3798   -4.2283   -7.5849 C.3     1  LIG1        0.0167
     23 C          -7.5271    4.4873   -6.8694 C.3     1  LIG1        0.0267
     24 C          -5.3912    3.4915   -8.7621 C.3     1  LIG1       -0.0404
     25 C          -5.9290   -3.7414   -6.2214 C.3     1  LIG1       -0.0408
     26 C          -7.8984   -0.5539   -8.3375 C.3     1  LIG1       -0.0584
     27 C          -4.8229   -0.9719   -9.3037 C.2     1  LIG1       -0.0835
     28 C          -4.5779   -0.8560   -6.0118 C.3     1  LIG1        0.1025
     29 C          -7.6013    2.5563   -9.4927 C.3     1  LIG1       -0.0590
     30 C          -3.5523   -3.6624   -9.3203 C.3     1  LIG1       -0.0405
     31 C          -4.6451   -5.5726   -7.3459 C.3     1  LIG1       -0.0412
     32 C          -5.8001    4.9565   -8.7894 C.3     1  LIG1        0.0069
     33 C          -2.8419   -5.0157   -9.0829 C.3     1  LIG1       -0.0343
     34 C          -6.4726    5.4045   -7.5147 C.2     1  LIG1        0.1392
     35 C          -3.8504   -6.0560   -8.5601 C.3     1  LIG1       -0.0470
     36 C          -8.8917    4.8108   -7.4957 C.3     1  LIG1       -0.0528
     37 C          -7.6088    4.8832   -5.3703 C.3     1  LIG1       -0.0528
     38 C          -6.5921   -4.5832   -8.5105 C.2     1  LIG1        0.0485
     39 C          -2.2571   -5.5127  -10.4194 C.3     1  LIG1       -0.0598
     40 C          -1.6666   -4.8488   -8.0964 C.3     1  LIG1       -0.0598
     41 C          -4.8010   -0.6039   -3.6875 C.2     1  LIG1        0.3320
     42 C          -4.2095    0.3679   -2.7455 C.2     1  LIG1        0.0231
     43 C          -3.5731   -0.1124   -1.6676 C.2     1  LIG1       -0.0460
     44 C          -2.7134    0.7025   -0.7960 C.ar    1  LIG1       -0.0001
     45 C          -1.4284    0.2639   -0.4044 C.ar    1  LIG1        0.0411
     46 C          -3.2411    1.8717   -0.2204 C.ar    1  LIG1       -0.0113
     47 C          -0.7306    0.9648    0.5904 C.ar    1  LIG1       -0.0364
     48 C          -2.5052    2.5797    0.7267 C.ar    1  LIG1        0.1175
     49 C          -1.2600    2.1314    1.1416 C.ar    1  LIG1       -0.0184
     50 C          -0.7469   -1.2448   -2.2604 C.2     1  LIG1        0.2411
     51 C           0.0654   -2.4674   -2.4737 C.2     1  LIG1        0.0021
     52 C          -0.0984   -3.5642   -1.7181 C.2     1  LIG1       -0.0344
     53 C           0.8160   -4.7712   -1.8616 C.2     1  LIG1        0.0647
     54 H          -3.8505    3.9181    0.8844 H       1  LIG1        0.2921
     55 H          -0.0623   -1.3110   -0.3615 H       1  LIG1        0.1551
     56 H          -5.0428    1.2536   -7.5046 H       1  LIG1        0.0315
     57 H          -6.2275    2.9091   -6.2933 H       1  LIG1        0.0315
     58 H          -6.8122    0.7767   -5.3488 H       1  LIG1        0.0271
     59 H          -8.2599   -0.0611   -5.8020 H       1  LIG1        0.0271
     60 H          -3.6297   -3.0451   -7.3199 H       1  LIG1        0.0355
     61 H          -8.9830    1.8772   -7.1261 H       1  LIG1        0.0269
     62 H          -8.5534    2.3272   -5.4983 H       1  LIG1        0.0269
     63 H          -7.5358   -2.5522   -6.8797 H       1  LIG1        0.0275
     64 H          -6.9357   -2.0697   -5.3185 H       1  LIG1        0.0275
     65 H          -6.0129    0.4428  -10.2727 H       1  LIG1        0.0310
     66 H          -4.4410    1.0462   -9.7717 H       1  LIG1        0.0310
     67 H          -4.9893    3.2323   -9.7487 H       1  LIG1        0.0275
     68 H          -4.5612    3.3848   -8.0507 H       1  LIG1        0.0275
     69 H          -6.6442   -4.4611   -5.8030 H       1  LIG1        0.0275
     70 H          -5.1156   -3.6878   -5.4875 H       1  LIG1        0.0275
     71 H          -8.4542    0.2379   -8.8322 H       1  LIG1        0.0235
     72 H          -8.6537   -1.1158   -7.7779 H       1  LIG1        0.0235
     73 H          -7.5271   -1.2156   -9.1243 H       1  LIG1        0.0235
     74 H          -4.2991   -1.3574  -10.1734 H       1  LIG1        0.0572
     75 H          -4.0499   -1.7501   -5.6589 H       1  LIG1        0.0706
     76 H          -3.8119   -0.3141   -6.5824 H       1  LIG1        0.0706
     77 H          -8.5862    2.2215   -9.1671 H       1  LIG1        0.0235
     78 H          -7.3199    1.9621  -10.3635 H       1  LIG1        0.0235
     79 H          -7.7541    3.5604   -9.8909 H       1  LIG1        0.0235
     80 H          -2.7873   -2.9132   -9.5665 H       1  LIG1        0.0276
     81 H          -4.1919   -3.7411  -10.2070 H       1  LIG1        0.0276
     82 H          -5.3493   -6.3623   -7.0543 H       1  LIG1        0.0274
     83 H          -3.9592   -5.4707   -6.4948 H       1  LIG1        0.0274
     84 H          -6.4659    5.1842   -9.6264 H       1  LIG1        0.0342
     85 H          -4.8989    5.5655   -8.9299 H       1  LIG1        0.0342
     86 H          -4.5536   -6.3236   -9.3590 H       1  LIG1        0.0271
     87 H          -3.3272   -6.9837   -8.2944 H       1  LIG1        0.0271
     88 H          -8.8970    4.7123   -8.5815 H       1  LIG1        0.0239
     89 H          -9.1727    5.8522   -7.2933 H       1  LIG1        0.0239
     90 H          -9.6869    4.1782   -7.0891 H       1  LIG1        0.0239
     91 H          -6.6555    4.7011   -4.8608 H       1  LIG1        0.0239
     92 H          -8.3910    4.3344   -4.8383 H       1  LIG1        0.0239
     93 H          -7.8383    5.9487   -5.2465 H       1  LIG1        0.0239
     94 H          -3.0436   -5.6589  -11.1681 H       1  LIG1        0.0235
     95 H          -1.7372   -6.4690  -10.2924 H       1  LIG1        0.0235
     96 H          -1.5387   -4.7931  -10.8284 H       1  LIG1        0.0235
     97 H          -1.9873   -4.5075   -7.1084 H       1  LIG1        0.0235
     98 H          -0.9403   -4.1188   -8.4726 H       1  LIG1        0.0235
     99 H          -1.1359   -5.7973   -7.9549 H       1  LIG1        0.0235
    100 H          -4.1613    1.4041   -3.0501 H       1  LIG1        0.0689
    101 H          -3.5642   -1.1838   -1.4681 H       1  LIG1        0.0626
    102 H          -4.2382    2.2012   -0.4959 H       1  LIG1        0.0660
    103 H           0.2539    0.6321    0.9093 H       1  LIG1        0.0637
    104 H          -0.6984    2.6872    1.8860 H       1  LIG1        0.0655
    105 H           0.8025   -2.4224   -3.2685 H       1  LIG1        0.0670
    106 H          -0.8839   -3.6361   -0.9728 H       1  LIG1        0.0637
@<TRIPOS>BOND
     1     1    41    1
     2     1    28    1
     3     2    34    2
     4     3    38   ar
     5     4    38   ar
     6     5    41    2
     7     6    48    1
     8     7    50    2
     9     8    53   ar
    10     9    53   ar
    11    10    45    1
    12    10    50   am
    13    11    16    1
    14    11    12    1
    15    11    26    1
    16    11    13    1
    17    12    14    1
    18    13    20    1
    19    13    17    1
    20    13    28    1
    21    14    15    1
    22    14    24    1
    23    14    29    1
    24    15    19    1
    25    15    23    1
    26    16    19    1
    27    17    18    1
    28    17    27    2
    29    18    30    1
    30    18    22    1
    31    20    25    1
    32    21    27    1
    33    21    12    1
    34    22    31    1
    35    22    25    1
    36    22    38    1
    37    23    34    1
    38    23    37    1
    39    23    36    1
    40    24    32    1
    41    30    33    1
    42    31    35    1
    43    32    34    1
    44    33    35    1
    45    33    40    1
    46    33    39    1
    47    41    42    1
    48    42    43    2
    49    43    44    1
    50    44    46   ar
    51    44    45   ar
    52    45    47   ar
    53    46    48   ar
    54    47    49   ar
    55    48    49   ar
    56    50    51    1
    57    51    52    2
    58    52    53    1
    59     6    54    1
    60    10    55    1
    61    12    56    1
    62    15    57    1
    63    16    58    1
    64    16    59    1
    65    18    60    1
    66    19    61    1
    67    19    62    1
    68    20    63    1
    69    20    64    1
    70    21    65    1
    71    21    66    1
    72    24    67    1
    73    24    68    1
    74    25    69    1
    75    25    70    1
    76    26    71    1
    77    26    72    1
    78    26    73    1
    79    27    74    1
    80    28    75    1
    81    28    76    1
    82    29    77    1
    83    29    78    1
    84    29    79    1
    85    30    80    1
    86    30    81    1
    87    31    82    1
    88    31    83    1
    89    32    84    1
    90    32    85    1
    91    35    86    1
    92    35    87    1
    93    36    88    1
    94    36    89    1
    95    36    90    1
    96    37    91    1
    97    37    92    1
    98    37    93    1
    99    39    94    1
   100    39    95    1
   101    39    96    1
   102    40    97    1
   103    40    98    1
   104    40    99    1
   105    42   100    1
   106    43   101    1
   107    46   102    1
   108    47   103    1
   109    49   104    1
   110    51   105    1
   111    52   106    1
@<TRIPOS>MOLECULE
11672244
 106 111 0 0 0
SMALL
GASTEIGER

@<TRIPOS>ATOM
      1 O          -4.9026   -0.0382   -4.8271 O.3     1  LIG1       -0.4607
      2 O          -6.2896    6.5679   -7.1280 O.2     1  LIG1       -0.2968
      3 O          -6.6224   -4.0768   -9.6152 O.co2   1  LIG1       -0.5492
      4 O          -7.4597   -5.3654   -7.9476 O.co2   1  LIG1       -0.5492
      5 O          -5.0244   -1.8340   -3.3780 O.2     1  LIG1       -0.2456
      6 O          -2.7210    3.1660    1.6490 O.3     1  LIG1       -0.5067
      7 O          -1.4796   -0.5775   -3.8397 O.2     1  LIG1       -0.2705
      8 O           2.5058   -3.5862   -4.2306 O.co2   1  LIG1       -0.5452
      9 O           1.0194   -4.8094   -5.4627 O.co2   1  LIG1       -0.5452
     10 N          -0.2296   -0.3699   -1.8728 N.am    1  LIG1       -0.2815
     11 C          -6.7690   -0.0004   -7.3810 C.3     1  LIG1       -0.0160
     12 C          -5.9060    1.0699   -8.1455 C.3     1  LIG1       -0.0256
     13 C          -5.7737   -1.2321   -6.9443 C.3     1  LIG1        0.0318
     14 C          -6.5450    2.5180   -8.3623 C.3     1  LIG1       -0.0243
     15 C          -7.0971    2.9997   -6.9755 C.3     1  LIG1       -0.0235
     16 C          -7.4962    0.6377   -6.1662 C.3     1  LIG1       -0.0461
     17 C          -5.0104   -1.7542   -8.1951 C.2     1  LIG1       -0.0596
     18 C          -4.3868   -3.1606   -8.0788 C.3     1  LIG1       -0.0080
     19 C          -8.1404    1.9976   -6.4389 C.3     1  LIG1       -0.0483
     20 C          -6.6188   -2.3684   -6.2906 C.3     1  LIG1       -0.0392
     21 C          -5.2923    0.4490   -9.4220 C.3     1  LIG1       -0.0306
     22 C          -5.3789   -4.2215   -7.5481 C.3     1  LIG1        0.0167
     23 C          -7.5362    4.5001   -6.8741 C.3     1  LIG1        0.0267
     24 C          -5.4027    3.4961   -8.7640 C.3     1  LIG1       -0.0404
     25 C          -5.9280   -3.7303   -6.1862 C.3     1  LIG1       -0.0408
     26 C          -7.9010   -0.5493   -8.3152 C.3     1  LIG1       -0.0584
     27 C          -4.8200   -0.9639   -9.2712 C.2     1  LIG1       -0.0835
     28 C          -4.5938   -0.8427   -5.9697 C.3     1  LIG1        0.1025
     29 C          -7.6109    2.5504   -9.4856 C.3     1  LIG1       -0.0590
     30 C          -3.5695   -3.6585   -9.2983 C.3     1  LIG1       -0.0405
     31 C          -4.6338   -5.5598   -7.3045 C.3     1  LIG1       -0.0412
     32 C          -5.8149    4.9598   -8.8017 C.3     1  LIG1        0.0069
     33 C          -2.8503   -5.0073   -9.0629 C.3     1  LIG1       -0.0343
     34 C          -6.4868    5.4159   -7.5298 C.2     1  LIG1        0.1392
     35 C          -3.8494   -6.0482   -8.5237 C.3     1  LIG1       -0.0470
     36 C          -8.9040    4.8174   -7.4965 C.3     1  LIG1       -0.0528
     37 C          -7.6108    4.9052   -5.3772 C.3     1  LIG1       -0.0528
     38 C          -6.6011   -4.5838   -8.4581 C.2     1  LIG1        0.0485
     39 C          -2.2788   -5.5077  -10.4039 C.3     1  LIG1       -0.0598
     40 C          -1.6640   -4.8306   -8.0909 C.3     1  LIG1       -0.0598
     41 C          -4.7769   -0.6686   -3.6344 C.2     1  LIG1        0.3320
     42 C          -4.1576    0.2928   -2.7012 C.2     1  LIG1        0.0231
     43 C          -3.2904   -0.1994   -1.8031 C.2     1  LIG1       -0.0460
     44 C          -2.3826    0.6476   -1.0237 C.ar    1  LIG1       -0.0001
     45 C          -0.9784    0.4964   -1.0404 C.ar    1  LIG1        0.0411
     46 C          -2.9679    1.5550   -0.1181 C.ar    1  LIG1       -0.0113
     47 C          -0.2079    1.2307   -0.1188 C.ar    1  LIG1       -0.0364
     48 C          -2.1745    2.2891    0.7585 C.ar    1  LIG1        0.1175
     49 C          -0.7994    2.1306    0.7678 C.ar    1  LIG1       -0.0184
     50 C          -0.5416   -0.8829   -3.1199 C.2     1  LIG1        0.2411
     51 C           0.5030   -1.8478   -3.5532 C.2     1  LIG1        0.0021
     52 C           0.2540   -2.8617   -4.3944 C.2     1  LIG1       -0.0344
     53 C           1.3706   -3.8431   -4.7338 C.2     1  LIG1        0.0647
     54 H          -3.6847    3.1576    1.5266 H       1  LIG1        0.2921
     55 H           0.7106   -0.5710   -1.5584 H       1  LIG1        0.1551
     56 H          -5.0523    1.2689   -7.4819 H       1  LIG1        0.0315
     57 H          -6.2362    2.9264   -6.2895 H       1  LIG1        0.0315
     58 H          -6.8172    0.8037   -5.3347 H       1  LIG1        0.0271
     59 H          -8.2641   -0.0436   -5.7789 H       1  LIG1        0.0271
     60 H          -3.6260   -3.0368   -7.2960 H       1  LIG1        0.0355
     61 H          -8.9912    1.8869   -7.1162 H       1  LIG1        0.0269
     62 H          -8.5619    2.3471   -5.4914 H       1  LIG1        0.0269
     63 H          -7.5381   -2.5480   -6.8516 H       1  LIG1        0.0275
     64 H          -6.9427   -2.0599   -5.2898 H       1  LIG1        0.0275
     65 H          -6.0021    0.4477  -10.2525 H       1  LIG1        0.0310
     66 H          -4.4343    1.0518   -9.7406 H       1  LIG1        0.0310
     67 H          -5.0021    3.2309   -9.7496 H       1  LIG1        0.0275
     68 H          -4.5712    3.3964   -8.0534 H       1  LIG1        0.0275
     69 H          -6.6403   -4.4506   -5.7636 H       1  LIG1        0.0275
     70 H          -5.1134   -3.6710   -5.4544 H       1  LIG1        0.0275
     71 H          -8.4661    0.2404   -8.8026 H       1  LIG1        0.0235
     72 H          -8.6497   -1.1210   -7.7572 H       1  LIG1        0.0235
     73 H          -7.5258   -1.2016   -9.1079 H       1  LIG1        0.0235
     74 H          -4.2914   -1.3500  -10.1377 H       1  LIG1        0.0572
     75 H          -4.0380   -1.7312   -5.6469 H       1  LIG1        0.0706
     76 H          -3.8467   -0.2551   -6.5189 H       1  LIG1        0.0706
     77 H          -8.5955    2.2179   -9.1569 H       1  LIG1        0.0235
     78 H          -7.3297    1.9487  -10.3513 H       1  LIG1        0.0235
     79 H          -7.7654    3.5511   -9.8919 H       1  LIG1        0.0235
     80 H          -2.8099   -2.9093   -9.5602 H       1  LIG1        0.0276
     81 H          -4.2232   -3.7457  -10.1742 H       1  LIG1        0.0276
     82 H          -5.3290   -6.3518   -6.9983 H       1  LIG1        0.0274
     83 H          -3.9395   -5.4461   -6.4618 H       1  LIG1        0.0274
     84 H          -6.4826    5.1795   -9.6394 H       1  LIG1        0.0342
     85 H          -4.9155    5.5699   -8.9484 H       1  LIG1        0.0342
     86 H          -4.5600   -6.3225   -9.3139 H       1  LIG1        0.0271
     87 H          -3.3200   -6.9723   -8.2581 H       1  LIG1        0.0271
     88 H          -8.9154    4.7044   -8.5808 H       1  LIG1        0.0239
     89 H          -9.1826    5.8616   -7.3057 H       1  LIG1        0.0239
     90 H          -9.6975    4.1910   -7.0772 H       1  LIG1        0.0239
     91 H          -6.6538    4.7297   -4.8722 H       1  LIG1        0.0239
     92 H          -8.3876    4.3565   -4.8370 H       1  LIG1        0.0239
     93 H          -7.8434    5.9705   -5.2585 H       1  LIG1        0.0239
     94 H          -3.0730   -5.6592  -11.1434 H       1  LIG1        0.0235
     95 H          -1.7544   -6.4618  -10.2791 H       1  LIG1        0.0235
     96 H          -1.5671   -4.7875  -10.8237 H       1  LIG1        0.0235
     97 H          -1.9744   -4.4880   -7.1001 H       1  LIG1        0.0235
     98 H          -0.9462   -4.0978   -8.4778 H       1  LIG1        0.0235
     99 H          -1.1263   -5.7757   -7.9529 H       1  LIG1        0.0235
    100 H          -4.2703    1.3474   -2.9069 H       1  LIG1        0.0689
    101 H          -3.1212   -1.2731   -1.7271 H       1  LIG1        0.0626
    102 H          -4.0496    1.6522   -0.0862 H       1  LIG1        0.0660
    103 H           0.8747    1.1271   -0.1014 H       1  LIG1        0.0637
    104 H          -0.1863    2.6995    1.4597 H       1  LIG1        0.0655
    105 H           1.5007   -1.7278   -3.1451 H       1  LIG1        0.0670
    106 H          -0.7321   -3.0273   -4.8166 H       1  LIG1        0.0637
@<TRIPOS>BOND
     1     1    41    1
     2     1    28    1
     3     2    34    2
     4     3    38   ar
     5     4    38   ar
     6     5    41    2
     7     6    48    1
     8     7    50    2
     9     8    53   ar
    10     9    53   ar
    11    10    45    1
    12    10    50   am
    13    11    16    1
    14    11    12    1
    15    11    26    1
    16    11    13    1
    17    12    14    1
    18    13    20    1
    19    13    17    1
    20    13    28    1
    21    14    15    1
    22    14    24    1
    23    14    29    1
    24    15    19    1
    25    15    23    1
    26    16    19    1
    27    17    18    1
    28    17    27    2
    29    18    30    1
    30    18    22    1
    31    20    25    1
    32    21    27    1
    33    21    12    1
    34    22    31    1
    35    22    25    1
    36    22    38    1
    37    23    34    1
    38    23    37    1
    39    23    36    1
    40    24    32    1
    41    30    33    1
    42    31    35    1
    43    32    34    1
    44    33    35    1
    45    33    40    1
    46    33    39    1
    47    41    42    1
    48    42    43    2
    49    43    44    1
    50    44    46   ar
    51    44    45   ar
    52    45    47   ar
    53    46    48   ar
    54    47    49   ar
    55    48    49   ar
    56    50    51    1
    57    51    52    2
    58    52    53    1
    59     6    54    1
    60    10    55    1
    61    12    56    1
    62    15    57    1
    63    16    58    1
    64    16    59    1
    65    18    60    1
    66    19    61    1
    67    19    62    1
    68    20    63    1
    69    20    64    1
    70    21    65    1
    71    21    66    1
    72    24    67    1
    73    24    68    1
    74    25    69    1
    75    25    70    1
    76    26    71    1
    77    26    72    1
    78    26    73    1
    79    27    74    1
    80    28    75    1
    81    28    76    1
    82    29    77    1
    83    29    78    1
    84    29    79    1
    85    30    80    1
    86    30    81    1
    87    31    82    1
    88    31    83    1
    89    32    84    1
    90    32    85    1
    91    35    86    1
    92    35    87    1
    93    36    88    1
    94    36    89    1
    95    36    90    1
    96    37    91    1
    97    37    92    1
    98    37    93    1
    99    39    94    1
   100    39    95    1
   101    39    96    1
   102    40    97    1
   103    40    98    1
   104    40    99    1
   105    42   100    1
   106    43   101    1
   107    46   102    1
   108    47   103    1
   109    49   104    1
   110    51   105    1
   111    52   106    1
@<TRIPOS>MOLECULE
11672244
 106 111 0 0 0
SMALL
GASTEIGER

@<TRIPOS>ATOM
      1 O          -4.9045   -0.0500   -4.8230 O.3     1  LIG1       -0.4607
      2 O          -6.2951    6.5684   -7.1324 O.2     1  LIG1       -0.2968
      3 O          -6.5830   -4.1015   -9.6378 O.co2   1  LIG1       -0.5492
      4 O          -7.4643   -5.3378   -7.9529 O.co2   1  LIG1       -0.5492
      5 O          -4.9696   -1.8664   -3.3993 O.2     1  LIG1       -0.2456
      6 O          -2.6769    3.1410    1.6449 O.3     1  LIG1       -0.5067
      7 O          -1.3562   -0.2678   -3.9058 O.2     1  LIG1       -0.2705
      8 O           2.5943   -3.4226   -4.1745 O.co2   1  LIG1       -0.5452
      9 O           1.1519   -5.1845   -3.9767 O.co2   1  LIG1       -0.5452
     10 N          -0.2476   -0.4579   -1.8491 N.am    1  LIG1       -0.2815
     11 C          -6.7646   -0.0013   -7.3848 C.3     1  LIG1       -0.0160
     12 C          -5.9034    1.0692   -8.1511 C.3     1  LIG1       -0.0256
     13 C          -5.7677   -1.2314   -6.9479 C.3     1  LIG1        0.0318
     14 C          -6.5428    2.5174   -8.3669 C.3     1  LIG1       -0.0243
     15 C          -7.0965    2.9985   -6.9803 C.3     1  LIG1       -0.0235
     16 C          -7.4904    0.6375   -6.1695 C.3     1  LIG1       -0.0461
     17 C          -5.0026   -1.7536   -8.1978 C.2     1  LIG1       -0.0596
     18 C          -4.3767   -3.1588   -8.0790 C.3     1  LIG1       -0.0080
     19 C          -8.1384    1.9950   -6.4443 C.3     1  LIG1       -0.0483
     20 C          -6.6114   -2.3682   -6.2932 C.3     1  LIG1       -0.0392
     21 C          -5.2915    0.4470   -9.4279 C.3     1  LIG1       -0.0306
     22 C          -5.3703   -4.2196   -7.5519 C.3     1  LIG1        0.0167
     23 C          -7.5374    4.4983   -6.8787 C.3     1  LIG1        0.0267
     24 C          -5.4004    3.4963   -8.7661 C.3     1  LIG1       -0.0404
     25 C          -5.9199   -3.7297   -6.1897 C.3     1  LIG1       -0.0408
     26 C          -7.8966   -0.5527   -8.3171 C.3     1  LIG1       -0.0584
     27 C          -4.8148   -0.9646   -9.2751 C.2     1  LIG1       -0.0835
     28 C          -4.5893   -0.8378   -5.9752 C.3     1  LIG1        0.1025
     29 C          -7.6073    2.5502   -9.4912 C.3     1  LIG1       -0.0590
     30 C          -3.5509   -3.6549   -9.2935 C.3     1  LIG1       -0.0405
     31 C          -4.6297   -5.5604   -7.3094 C.3     1  LIG1       -0.0412
     32 C          -5.8133    4.9599   -8.8036 C.3     1  LIG1        0.0069
     33 C          -2.8350   -5.0050   -9.0555 C.3     1  LIG1       -0.0343
     34 C          -6.4887    5.4155   -7.5335 C.2     1  LIG1        0.1392
     35 C          -3.8386   -6.0462   -8.5252 C.3     1  LIG1       -0.0470
     36 C          -8.9052    4.8142   -7.5018 C.3     1  LIG1       -0.0528
     37 C          -7.6136    4.9028   -5.3816 C.3     1  LIG1       -0.0528
     38 C          -6.5873   -4.5808   -8.4687 C.2     1  LIG1        0.0485
     39 C          -2.2546   -5.5038  -10.3932 C.3     1  LIG1       -0.0598
     40 C          -1.6553   -4.8317   -8.0748 C.3     1  LIG1       -0.0598
     41 C          -4.7553   -0.6915   -3.6383 C.2     1  LIG1        0.3320
     42 C          -4.1431    0.2664   -2.6986 C.2     1  LIG1        0.0231
     43 C          -3.2633   -0.2275   -1.8143 C.2     1  LIG1       -0.0460
     44 C          -2.3630    0.6144   -1.0184 C.ar    1  LIG1       -0.0001
     45 C          -0.9634    0.4230   -1.0064 C.ar    1  LIG1        0.0411
     46 C          -2.9399    1.5363   -0.1252 C.ar    1  LIG1       -0.0113
     47 C          -0.1871    1.1213   -0.0663 C.ar    1  LIG1       -0.0364
     48 C          -2.1400    2.2451    0.7667 C.ar    1  LIG1        0.1175
     49 C          -0.7702    2.0408    0.8062 C.ar    1  LIG1       -0.0184
     50 C          -0.5150   -0.7630   -3.1717 C.2     1  LIG1        0.2411
     51 C           0.5105   -1.6927   -3.6941 C.2     1  LIG1        0.0021
     52 C           0.3314   -3.0167   -3.6211 C.2     1  LIG1       -0.0344
     53 C           1.4672   -3.9631   -3.9853 C.2     1  LIG1        0.0647
     54 H          -3.6373    3.1646    1.5005 H       1  LIG1        0.2921
     55 H           0.6686   -0.7538   -1.5339 H       1  LIG1        0.1551
     56 H          -5.0490    1.2693   -7.4890 H       1  LIG1        0.0315
     57 H          -6.2356    2.9264   -6.2940 H       1  LIG1        0.0315
     58 H          -6.8092    0.8077   -5.3406 H       1  LIG1        0.0271
     59 H          -8.2555   -0.0448   -5.7786 H       1  LIG1        0.0271
     60 H          -3.6196   -3.0346   -7.2930 H       1  LIG1        0.0355
     61 H          -8.9880    1.8815   -7.1228 H       1  LIG1        0.0269
     62 H          -8.5620    2.3443   -5.4976 H       1  LIG1        0.0269
     63 H          -7.5313   -2.5480   -6.8532 H       1  LIG1        0.0275
     64 H          -6.9343   -2.0601   -5.2919 H       1  LIG1        0.0275
     65 H          -6.0043    0.4416  -10.2560 H       1  LIG1        0.0310
     66 H          -4.4362    1.0515   -9.7506 H       1  LIG1        0.0310
     67 H          -4.9977    3.2318   -9.7510 H       1  LIG1        0.0275
     68 H          -4.5701    3.3968   -8.0540 H       1  LIG1        0.0275
     69 H          -6.6314   -4.4507   -5.7672 H       1  LIG1        0.0275
     70 H          -5.1050   -3.6700   -5.4584 H       1  LIG1        0.0275
     71 H          -8.4571    0.2354   -8.8125 H       1  LIG1        0.0235
     72 H          -8.6487   -1.1173   -7.7560 H       1  LIG1        0.0235
     73 H          -7.5221   -1.2131   -9.1035 H       1  LIG1        0.0235
     74 H          -4.2861   -1.3509  -10.1416 H       1  LIG1        0.0572
     75 H          -4.0219   -1.7233   -5.6635 H       1  LIG1        0.0706
     76 H          -3.8504   -0.2362   -6.5194 H       1  LIG1        0.0706
     77 H          -8.5911    2.2132   -9.1648 H       1  LIG1        0.0235
     78 H          -7.3226    1.9526  -10.3587 H       1  LIG1        0.0235
     79 H          -7.7645    3.5518   -9.8942 H       1  LIG1        0.0235
     80 H          -2.7890   -2.9052   -9.5477 H       1  LIG1        0.0276
     81 H          -4.1970   -3.7393  -10.1751 H       1  LIG1        0.0276
     82 H          -5.3291   -6.3517   -7.0110 H       1  LIG1        0.0274
     83 H          -3.9405   -5.4519   -6.4618 H       1  LIG1        0.0274
     84 H          -6.4789    5.1796   -9.6430 H       1  LIG1        0.0342
     85 H          -4.9137    5.5705   -8.9477 H       1  LIG1        0.0342
     86 H          -4.5445   -6.3177   -9.3205 H       1  LIG1        0.0271
     87 H          -3.3120   -6.9717   -8.2588 H       1  LIG1        0.0271
     88 H          -8.9154    4.7036   -8.5863 H       1  LIG1        0.0239
     89 H          -9.1860    5.8575   -7.3090 H       1  LIG1        0.0239
     90 H          -9.6979    4.1855   -7.0845 H       1  LIG1        0.0239
     91 H          -6.6569    4.7278   -4.8758 H       1  LIG1        0.0239
     92 H          -8.3906    4.3533   -4.8424 H       1  LIG1        0.0239
     93 H          -7.8471    5.9679   -5.2627 H       1  LIG1        0.0239
     94 H          -3.0439   -5.6537  -11.1383 H       1  LIG1        0.0235
     95 H          -1.7318   -6.4586  -10.2662 H       1  LIG1        0.0235
     96 H          -1.5396   -4.7836  -10.8070 H       1  LIG1        0.0235
     97 H          -1.9722   -4.4894   -7.0858 H       1  LIG1        0.0235
     98 H          -0.9334   -4.1000   -8.4561 H       1  LIG1        0.0235
     99 H          -1.1205   -5.7779   -7.9339 H       1  LIG1        0.0235
    100 H          -4.2730    1.3222   -2.8879 H       1  LIG1        0.0689
    101 H          -3.0807   -1.3001   -1.7553 H       1  LIG1        0.0626
    102 H          -4.0186    1.6642   -0.1133 H       1  LIG1        0.0660
    103 H           0.8908    0.9820   -0.0320 H       1  LIG1        0.0637
    104 H          -0.1546    2.5924    1.5104 H       1  LIG1        0.0655
    105 H           1.4383   -1.2519   -4.0390 H       1  LIG1        0.0670
    106 H          -0.6045   -3.4529   -3.2823 H       1  LIG1        0.0637
@<TRIPOS>BOND
     1     1    41    1
     2     1    28    1
     3     2    34    2
     4     3    38   ar
     5     4    38   ar
     6     5    41    2
     7     6    48    1
     8     7    50    2
     9     8    53   ar
    10     9    53   ar
    11    10    45    1
    12    10    50   am
    13    11    16    1
    14    11    12    1
    15    11    26    1
    16    11    13    1
    17    12    14    1
    18    13    20    1
    19    13    17    1
    20    13    28    1
    21    14    15    1
    22    14    24    1
    23    14    29    1
    24    15    19    1
    25    15    23    1
    26    16    19    1
    27    17    18    1
    28    17    27    2
    29    18    30    1
    30    18    22    1
    31    20    25    1
    32    21    27    1
    33    21    12    1
    34    22    31    1
    35    22    25    1
    36    22    38    1
    37    23    34    1
    38    23    37    1
    39    23    36    1
    40    24    32    1
    41    30    33    1
    42    31    35    1
    43    32    34    1
    44    33    35    1
    45    33    40    1
    46    33    39    1
    47    41    42    1
    48    42    43    2
    49    43    44    1
    50    44    46   ar
    51    44    45   ar
    52    45    47   ar
    53    46    48   ar
    54    47    49   ar
    55    48    49   ar
    56    50    51    1
    57    51    52    2
    58    52    53    1
    59     6    54    1
    60    10    55    1
    61    12    56    1
    62    15    57    1
    63    16    58    1
    64    16    59    1
    65    18    60    1
    66    19    61    1
    67    19    62    1
    68    20    63    1
    69    20    64    1
    70    21    65    1
    71    21    66    1
    72    24    67    1
    73    24    68    1
    74    25    69    1
    75    25    70    1
    76    26    71    1
    77    26    72    1
    78    26    73    1
    79    27    74    1
    80    28    75    1
    81    28    76    1
    82    29    77    1
    83    29    78    1
    84    29    79    1
    85    30    80    1
    86    30    81    1
    87    31    82    1
    88    31    83    1
    89    32    84    1
    90    32    85    1
    91    35    86    1
    92    35    87    1
    93    36    88    1
    94    36    89    1
    95    36    90    1
    96    37    91    1
    97    37    92    1
    98    37    93    1
    99    39    94    1
   100    39    95    1
   101    39    96    1
   102    40    97    1
   103    40    98    1
   104    40    99    1
   105    42   100    1
   106    43   101    1
   107    46   102    1
   108    47   103    1
   109    49   104    1
   110    51   105    1
   111    52   106    1
@<TRIPOS>MOLECULE
11672244
 106 111 0 0 0
SMALL
GASTEIGER

@<TRIPOS>ATOM
      1 O          -4.8946   -0.0588   -4.8358 O.3     1  LIG1       -0.4607
      2 O          -6.3039    6.5697   -7.1347 O.2     1  LIG1       -0.2968
      3 O          -6.5828   -4.1346   -9.6582 O.co2   1  LIG1       -0.5492
      4 O          -7.5005   -5.3007   -7.9433 O.co2   1  LIG1       -0.5492
      5 O          -4.9264   -1.8881   -3.4286 O.2     1  LIG1       -0.2456
      6 O          -2.6326    3.1192    1.6511 O.3     1  LIG1       -0.5067
      7 O          -1.2248    0.0301   -3.8925 O.2     1  LIG1       -0.2705
      8 O           2.4595   -3.3534   -4.6313 O.co2   1  LIG1       -0.5452
      9 O           1.5500   -5.0104   -3.3472 O.co2   1  LIG1       -0.5452
     10 N          -0.2992   -0.5450   -1.8271 N.am    1  LIG1       -0.2815
     11 C          -6.7668   -0.0027   -7.3922 C.3     1  LIG1       -0.0160
     12 C          -5.9082    1.0668   -8.1626 C.3     1  LIG1       -0.0256
     13 C          -5.7692   -1.2330   -6.9601 C.3     1  LIG1        0.0318
     14 C          -6.5446    2.5174   -8.3725 C.3     1  LIG1       -0.0243
     15 C          -7.0975    2.9967   -6.9848 C.3     1  LIG1       -0.0235
     16 C          -7.4855    0.6368   -6.1734 C.3     1  LIG1       -0.0461
     17 C          -5.0119   -1.7582   -8.2136 C.2     1  LIG1       -0.0596
     18 C          -4.3880   -3.1646   -8.0964 C.3     1  LIG1       -0.0080
     19 C          -8.1377    1.9920   -6.4484 C.3     1  LIG1       -0.0483
     20 C          -6.6099   -2.3670   -6.2971 C.3     1  LIG1       -0.0392
     21 C          -5.3055    0.4424   -9.4433 C.3     1  LIG1       -0.0306
     22 C          -5.3831   -4.2214   -7.5642 C.3     1  LIG1        0.0167
     23 C          -7.5399    4.4961   -6.8812 C.3     1  LIG1        0.0267
     24 C          -5.3998    3.4957   -8.7667 C.3     1  LIG1       -0.0404
     25 C          -5.9198   -3.7295   -6.1977 C.3     1  LIG1       -0.0408
     26 C          -7.9039   -0.5537   -8.3186 C.3     1  LIG1       -0.0584
     27 C          -4.8290   -0.9699   -9.2924 C.2     1  LIG1       -0.0835
     28 C          -4.5844   -0.8369   -5.9962 C.3     1  LIG1        0.1025
     29 C          -7.6081    2.5562   -9.4971 C.3     1  LIG1       -0.0590
     30 C          -3.5644   -3.6622   -9.3112 C.3     1  LIG1       -0.0405
     31 C          -4.6500   -5.5676   -7.3283 C.3     1  LIG1       -0.0412
     32 C          -5.8102    4.9601   -8.8016 C.3     1  LIG1        0.0069
     33 C          -2.8538   -5.0158   -9.0743 C.3     1  LIG1       -0.0343
     34 C          -6.4918    5.4153   -7.5342 C.2     1  LIG1        0.1392
     35 C          -3.8621   -6.0535   -8.5464 C.3     1  LIG1       -0.0470
     36 C          -8.9081    4.8120   -7.5037 C.3     1  LIG1       -0.0528
     37 C          -7.6171    4.8983   -5.3834 C.3     1  LIG1       -0.0528
     38 C          -6.6048   -4.5789   -8.4759 C.2     1  LIG1        0.0485
     39 C          -2.2744   -5.5153  -10.4122 C.3     1  LIG1       -0.0598
     40 C          -1.6745   -4.8489   -8.0923 C.3     1  LIG1       -0.0598
     41 C          -4.7359   -0.7065   -3.6595 C.2     1  LIG1        0.3320
     42 C          -4.1317    0.2522   -2.7132 C.2     1  LIG1        0.0231
     43 C          -3.2647   -0.2445   -1.8188 C.2     1  LIG1       -0.0460
     44 C          -2.3671    0.5871   -1.0065 C.ar    1  LIG1       -0.0001
     45 C          -0.9744    0.3524   -0.9722 C.ar    1  LIG1        0.0411
     46 C          -2.9277    1.5257   -0.1239 C.ar    1  LIG1       -0.0113
     47 C          -0.1867    1.0079   -0.0143 C.ar    1  LIG1       -0.0364
     48 C          -2.1155    2.2021    0.7829 C.ar    1  LIG1        0.1175
     49 C          -0.7537    1.9440    0.8505 C.ar    1  LIG1       -0.0184
     50 C          -0.5135   -0.6772   -3.1879 C.2     1  LIG1        0.2411
     51 C           0.4085   -1.6646   -3.7995 C.2     1  LIG1        0.0021
     52 C           0.5832   -2.8858   -3.2707 C.2     1  LIG1       -0.0344
     53 C           1.6183   -3.8506   -3.8308 C.2     1  LIG1        0.0647
     54 H          -3.5844    3.1974    1.4725 H       1  LIG1        0.2921
     55 H           0.5909   -0.9148   -1.5135 H       1  LIG1        0.1551
     56 H          -5.0496    1.2649   -7.5057 H       1  LIG1        0.0315
     57 H          -6.2358    2.9249   -6.2996 H       1  LIG1        0.0315
     58 H          -6.7987    0.8103   -5.3495 H       1  LIG1        0.0271
     59 H          -8.2468   -0.0459   -5.7758 H       1  LIG1        0.0271
     60 H          -3.6285   -3.0415   -7.3125 H       1  LIG1        0.0355
     61 H          -8.9868    1.8764   -7.1271 H       1  LIG1        0.0269
     62 H          -8.5618    2.3405   -5.5017 H       1  LIG1        0.0269
     63 H          -7.5351   -2.5449   -6.8492 H       1  LIG1        0.0275
     64 H          -6.9238   -2.0572   -5.2935 H       1  LIG1        0.0275
     65 H          -6.0248    0.4362  -10.2658 H       1  LIG1        0.0310
     66 H          -4.4525    1.0461   -9.7731 H       1  LIG1        0.0310
     67 H          -4.9946    3.2326   -9.7509 H       1  LIG1        0.0275
     68 H          -4.5715    3.3934   -8.0526 H       1  LIG1        0.0275
     69 H          -6.6280   -4.4490   -5.7672 H       1  LIG1        0.0275
     70 H          -5.0978   -3.6701   -5.4743 H       1  LIG1        0.0275
     71 H          -8.4591    0.2343   -8.8201 H       1  LIG1        0.0235
     72 H          -8.6584   -1.1094   -7.7518 H       1  LIG1        0.0235
     73 H          -7.5349   -1.2231   -9.1001 H       1  LIG1        0.0235
     74 H          -4.3055   -1.3577  -10.1617 H       1  LIG1        0.0572
     75 H          -4.0094   -1.7209   -5.6944 H       1  LIG1        0.0706
     76 H          -3.8534   -0.2295   -6.5438 H       1  LIG1        0.0706
     77 H          -8.5907    2.2123   -9.1742 H       1  LIG1        0.0235
     78 H          -7.3199    1.9678  -10.3697 H       1  LIG1        0.0235
     79 H          -7.7683    3.5607   -9.8915 H       1  LIG1        0.0235
     80 H          -2.7996   -2.9149   -9.5639 H       1  LIG1        0.0276
     81 H          -4.2097   -3.7426  -10.1937 H       1  LIG1        0.0276
     82 H          -5.3545   -6.3557   -7.0335 H       1  LIG1        0.0274
     83 H          -3.9599   -5.4672   -6.4807 H       1  LIG1        0.0274
     84 H          -6.4709    5.1827   -9.6441 H       1  LIG1        0.0342
     85 H          -4.9088    5.5695   -8.9392 H       1  LIG1        0.0342
     86 H          -4.5697   -6.3197   -9.3419 H       1  LIG1        0.0271
     87 H          -3.3398   -6.9822   -8.2828 H       1  LIG1        0.0271
     88 H          -8.9166    4.7102   -8.5891 H       1  LIG1        0.0239
     89 H          -9.1928    5.8527   -7.3033 H       1  LIG1        0.0239
     90 H          -9.6993    4.1773   -7.0925 H       1  LIG1        0.0239
     91 H          -6.6609    4.7221   -4.8771 H       1  LIG1        0.0239
     92 H          -8.3947    4.3485   -4.8457 H       1  LIG1        0.0239
     93 H          -7.8502    5.9633   -5.2629 H       1  LIG1        0.0239
     94 H          -3.0635   -5.6612  -11.1581 H       1  LIG1        0.0235
     95 H          -1.7554   -6.4721  -10.2857 H       1  LIG1        0.0235
     96 H          -1.5561   -4.7973  -10.8244 H       1  LIG1        0.0235
     97 H          -1.9909   -4.5063   -7.1033 H       1  LIG1        0.0235
     98 H          -0.9489   -4.1200   -8.4719 H       1  LIG1        0.0235
     99 H          -1.1443   -5.7977   -7.9519 H       1  LIG1        0.0235
    100 H          -4.2554    1.3085   -2.9027 H       1  LIG1        0.0689
    101 H          -3.0890   -1.3181   -1.7571 H       1  LIG1        0.0626
    102 H          -4.0007    1.6917   -0.1311 H       1  LIG1        0.0660
    103 H           0.8832    0.8261    0.0352 H       1  LIG1        0.0637
    104 H          -0.1329    2.4702    1.5684 H       1  LIG1        0.0655
    105 H           0.9362   -1.3425   -4.6893 H       1  LIG1        0.0670
    106 H           0.0053   -3.2342   -2.4234 H       1  LIG1        0.0637
@<TRIPOS>BOND
     1     1    41    1
     2     1    28    1
     3     2    34    2
     4     3    38   ar
     5     4    38   ar
     6     5    41    2
     7     6    48    1
     8     7    50    2
     9     8    53   ar
    10     9    53   ar
    11    10    45    1
    12    10    50   am
    13    11    16    1
    14    11    12    1
    15    11    26    1
    16    11    13    1
    17    12    14    1
    18    13    20    1
    19    13    17    1
    20    13    28    1
    21    14    15    1
    22    14    24    1
    23    14    29    1
    24    15    19    1
    25    15    23    1
    26    16    19    1
    27    17    18    1
    28    17    27    2
    29    18    30    1
    30    18    22    1
    31    20    25    1
    32    21    27    1
    33    21    12    1
    34    22    31    1
    35    22    25    1
    36    22    38    1
    37    23    34    1
    38    23    37    1
    39    23    36    1
    40    24    32    1
    41    30    33    1
    42    31    35    1
    43    32    34    1
    44    33    35    1
    45    33    40    1
    46    33    39    1
    47    41    42    1
    48    42    43    2
    49    43    44    1
    50    44    46   ar
    51    44    45   ar
    52    45    47   ar
    53    46    48   ar
    54    47    49   ar
    55    48    49   ar
    56    50    51    1
    57    51    52    2
    58    52    53    1
    59     6    54    1
    60    10    55    1
    61    12    56    1
    62    15    57    1
    63    16    58    1
    64    16    59    1
    65    18    60    1
    66    19    61    1
    67    19    62    1
    68    20    63    1
    69    20    64    1
    70    21    65    1
    71    21    66    1
    72    24    67    1
    73    24    68    1
    74    25    69    1
    75    25    70    1
    76    26    71    1
    77    26    72    1
    78    26    73    1
    79    27    74    1
    80    28    75    1
    81    28    76    1
    82    29    77    1
    83    29    78    1
    84    29    79    1
    85    30    80    1
    86    30    81    1
    87    31    82    1
    88    31    83    1
    89    32    84    1
    90    32    85    1
    91    35    86    1
    92    35    87    1
    93    36    88    1
    94    36    89    1
    95    36    90    1
    96    37    91    1
    97    37    92    1
    98    37    93    1
    99    39    94    1
   100    39    95    1
   101    39    96    1
   102    40    97    1
   103    40    98    1
   104    40    99    1
   105    42   100    1
   106    43   101    1
   107    46   102    1
   108    47   103    1
   109    49   104    1
   110    51   105    1
   111    52   106    1
@<TRIPOS>MOLECULE
11672244
 106 111 0 0 0
SMALL
GASTEIGER

@<TRIPOS>ATOM
      1 O          -4.9076   -0.0387   -4.8233 O.3     1  LIG1       -0.4607
      2 O          -6.2934    6.5677   -7.1284 O.2     1  LIG1       -0.2968
      3 O          -6.5966   -4.0986   -9.6287 O.co2   1  LIG1       -0.5492
      4 O          -7.4695   -5.3421   -7.9451 O.co2   1  LIG1       -0.5492
      5 O          -5.0249   -1.8366   -3.3768 O.2     1  LIG1       -0.2456
      6 O          -2.7228    3.1487    1.6589 O.3     1  LIG1       -0.5067
      7 O          -1.4849   -0.5568   -3.8577 O.2     1  LIG1       -0.2705
      8 O           2.5721   -3.4387   -4.3524 O.co2   1  LIG1       -0.5452
      9 O           1.0467   -4.8919   -5.2340 O.co2   1  LIG1       -0.5452
     10 N          -0.2188   -0.3409   -1.8995 N.am    1  LIG1       -0.2815
     11 C          -6.7685   -0.0017   -7.3814 C.3     1  LIG1       -0.0160
     12 C          -5.9053    1.0683   -8.1464 C.3     1  LIG1       -0.0256
     13 C          -5.7728   -1.2322   -6.9428 C.3     1  LIG1        0.0318
     14 C          -6.5432    2.5170   -8.3631 C.3     1  LIG1       -0.0243
     15 C          -7.0983    2.9983   -6.9774 C.3     1  LIG1       -0.0235
     16 C          -7.4969    0.6373   -6.1677 C.3     1  LIG1       -0.0461
     17 C          -5.0074   -1.7547   -8.1925 C.2     1  LIG1       -0.0596
     18 C          -4.3821   -3.1602   -8.0736 C.3     1  LIG1       -0.0080
     19 C          -8.1424    1.9959   -6.4433 C.3     1  LIG1       -0.0483
     20 C          -6.6181   -2.3689   -6.2899 C.3     1  LIG1       -0.0392
     21 C          -5.2930    0.4458   -9.4230 C.3     1  LIG1       -0.0306
     22 C          -5.3762   -4.2209   -7.5466 C.3     1  LIG1        0.0167
     23 C          -7.5379    4.4986   -6.8763 C.3     1  LIG1        0.0267
     24 C          -5.3994    3.4950   -8.7609 C.3     1  LIG1       -0.0404
     25 C          -5.9264   -3.7304   -6.1848 C.3     1  LIG1       -0.0408
     26 C          -7.8994   -0.5524   -8.3157 C.3     1  LIG1       -0.0584
     27 C          -4.8181   -0.9660   -9.2698 C.2     1  LIG1       -0.0835
     28 C          -4.5950   -0.8410   -5.9665 C.3     1  LIG1        0.1025
     29 C          -7.6061    2.5509   -9.4890 C.3     1  LIG1       -0.0590
     30 C          -3.5574   -3.6566   -9.2886 C.3     1  LIG1       -0.0405
     31 C          -4.6347   -5.5612   -7.3038 C.3     1  LIG1       -0.0412
     32 C          -5.8111    4.9588   -8.7992 C.3     1  LIG1        0.0069
     33 C          -2.8405   -5.0062   -9.0507 C.3     1  LIG1       -0.0343
     34 C          -6.4877    5.4150   -7.5298 C.2     1  LIG1        0.1392
     35 C          -3.8438   -6.0473   -8.5197 C.3     1  LIG1       -0.0470
     36 C          -8.9049    4.8157   -7.5007 C.3     1  LIG1       -0.0528
     37 C          -7.6152    4.9031   -5.3793 C.3     1  LIG1       -0.0528
     38 C          -6.5950   -4.5825   -8.4615 C.2     1  LIG1        0.0485
     39 C          -2.2610   -5.5050  -10.3890 C.3     1  LIG1       -0.0598
     40 C          -1.6601   -4.8320   -8.0710 C.3     1  LIG1       -0.0598
     41 C          -4.7809   -0.6702   -3.6316 C.2     1  LIG1        0.3320
     42 C          -4.1640    0.2912   -2.6970 C.2     1  LIG1        0.0231
     43 C          -3.2831   -0.1993   -1.8113 C.2     1  LIG1       -0.0460
     44 C          -2.3777    0.6491   -1.0304 C.ar    1  LIG1       -0.0001
     45 C          -0.9724    0.5074   -1.0531 C.ar    1  LIG1        0.0411
     46 C          -2.9655    1.5466   -0.1166 C.ar    1  LIG1       -0.0113
     47 C          -0.2038    1.2378   -0.1272 C.ar    1  LIG1       -0.0364
     48 C          -2.1738    2.2794    0.7626 C.ar    1  LIG1        0.1175
     49 C          -0.7979    2.1276    0.7679 C.ar    1  LIG1       -0.0184
     50 C          -0.5319   -0.8428   -3.1503 C.2     1  LIG1        0.2411
     51 C           0.5342   -1.7683   -3.6089 C.2     1  LIG1        0.0021
     52 C           0.2720   -2.8705   -4.3250 C.2     1  LIG1       -0.0344
     53 C           1.4111   -3.8191   -4.6811 C.2     1  LIG1        0.0647
     54 H          -3.6863    3.1406    1.5342 H       1  LIG1        0.2921
     55 H           0.7239   -0.5389   -1.5941 H       1  LIG1        0.1551
     56 H          -5.0512    1.2669   -7.4834 H       1  LIG1        0.0315
     57 H          -6.2387    2.9251   -6.2898 H       1  LIG1        0.0315
     58 H          -6.8185    0.8057   -5.3363 H       1  LIG1        0.0271
     59 H          -8.2641   -0.0443   -5.7796 H       1  LIG1        0.0271
     60 H          -3.6249   -3.0358   -7.2874 H       1  LIG1        0.0355
     61 H          -8.9910    1.8837   -7.1232 H       1  LIG1        0.0269
     62 H          -8.5671    2.3455   -5.4972 H       1  LIG1        0.0269
     63 H          -7.5368   -2.5488   -6.8518 H       1  LIG1        0.0275
     64 H          -6.9432   -2.0606   -5.2894 H       1  LIG1        0.0275
     65 H          -6.0050    0.4413  -10.2517 H       1  LIG1        0.0310
     66 H          -4.4369    1.0495   -9.7449 H       1  LIG1        0.0310
     67 H          -4.9957    3.2300   -9.7453 H       1  LIG1        0.0275
     68 H          -4.5701    3.3948   -8.0478 H       1  LIG1        0.0275
     69 H          -6.6380   -4.4512   -5.7621 H       1  LIG1        0.0275
     70 H          -5.1120   -3.6702   -5.4528 H       1  LIG1        0.0275
     71 H          -8.4590    0.2361   -8.8114 H       1  LIG1        0.0235
     72 H          -8.6523   -1.1172   -7.7560 H       1  LIG1        0.0235
     73 H          -7.5241   -1.2124   -9.1020 H       1  LIG1        0.0235
     74 H          -4.2885   -1.3528  -10.1355 H       1  LIG1        0.0572
     75 H          -4.0376   -1.7285   -5.6438 H       1  LIG1        0.0706
     76 H          -3.8485   -0.2513   -6.5142 H       1  LIG1        0.0706
     77 H          -8.5905    2.2138   -9.1642 H       1  LIG1        0.0235
     78 H          -7.3204    1.9540  -10.3566 H       1  LIG1        0.0235
     79 H          -7.7626    3.5528   -9.8914 H       1  LIG1        0.0235
     80 H          -2.7960   -2.9070   -9.5443 H       1  LIG1        0.0276
     81 H          -4.2049   -3.7419  -10.1692 H       1  LIG1        0.0276
     82 H          -5.3335   -6.3528   -7.0047 H       1  LIG1        0.0274
     83 H          -3.9452   -5.4519   -6.4566 H       1  LIG1        0.0274
     84 H          -6.4754    5.1790   -9.6394 H       1  LIG1        0.0342
     85 H          -4.9108    5.5687   -8.9421 H       1  LIG1        0.0342
     86 H          -4.5500   -6.3191   -9.3146 H       1  LIG1        0.0271
     87 H          -3.3169   -6.9726   -8.2533 H       1  LIG1        0.0271
     88 H          -8.9141    4.7050   -8.5853 H       1  LIG1        0.0239
     89 H          -9.1849    5.8592   -7.3083 H       1  LIG1        0.0239
     90 H          -9.6986    4.1876   -7.0843 H       1  LIG1        0.0239
     91 H          -6.6589    4.7279   -4.8728 H       1  LIG1        0.0239
     92 H          -8.3926    4.3538   -4.8406 H       1  LIG1        0.0239
     93 H          -7.8485    5.9682   -5.2606 H       1  LIG1        0.0239
     94 H          -3.0508   -5.6552  -11.1335 H       1  LIG1        0.0235
     95 H          -1.7379   -6.4596  -10.2624 H       1  LIG1        0.0235
     96 H          -1.5466   -4.7846  -10.8035 H       1  LIG1        0.0235
     97 H          -1.9764   -4.4900   -7.0817 H       1  LIG1        0.0235
     98 H          -0.9390   -4.0997   -8.4526 H       1  LIG1        0.0235
     99 H          -1.1244   -5.7779   -7.9306 H       1  LIG1        0.0235
    100 H          -4.2906    1.3460   -2.8930 H       1  LIG1        0.0689
    101 H          -3.1023   -1.2718   -1.7462 H       1  LIG1        0.0626
    102 H          -4.0476    1.6372   -0.0807 H       1  LIG1        0.0660
    103 H           0.8794    1.1406   -0.1136 H       1  LIG1        0.0637
    104 H          -0.1862    2.6950    1.4624 H       1  LIG1        0.0655
    105 H           1.5536   -1.5445   -3.3157 H       1  LIG1        0.0670
    106 H          -0.7378   -3.1324   -4.6245 H       1  LIG1        0.0637
@<TRIPOS>BOND
     1     1    41    1
     2     1    28    1
     3     2    34    2
     4     3    38   ar
     5     4    38   ar
     6     5    41    2
     7     6    48    1
     8     7    50    2
     9     8    53   ar
    10     9    53   ar
    11    10    45    1
    12    10    50   am
    13    11    16    1
    14    11    12    1
    15    11    26    1
    16    11    13    1
    17    12    14    1
    18    13    20    1
    19    13    17    1
    20    13    28    1
    21    14    15    1
    22    14    24    1
    23    14    29    1
    24    15    19    1
    25    15    23    1
    26    16    19    1
    27    17    18    1
    28    17    27    2
    29    18    30    1
    30    18    22    1
    31    20    25    1
    32    21    27    1
    33    21    12    1
    34    22    31    1
    35    22    25    1
    36    22    38    1
    37    23    34    1
    38    23    37    1
    39    23    36    1
    40    24    32    1
    41    30    33    1
    42    31    35    1
    43    32    34    1
    44    33    35    1
    45    33    40    1
    46    33    39    1
    47    41    42    1
    48    42    43    2
    49    43    44    1
    50    44    46   ar
    51    44    45   ar
    52    45    47   ar
    53    46    48   ar
    54    47    49   ar
    55    48    49   ar
    56    50    51    1
    57    51    52    2
    58    52    53    1
    59     6    54    1
    60    10    55    1
    61    12    56    1
    62    15    57    1
    63    16    58    1
    64    16    59    1
    65    18    60    1
    66    19    61    1
    67    19    62    1
    68    20    63    1
    69    20    64    1
    70    21    65    1
    71    21    66    1
    72    24    67    1
    73    24    68    1
    74    25    69    1
    75    25    70    1
    76    26    71    1
    77    26    72    1
    78    26    73    1
    79    27    74    1
    80    28    75    1
    81    28    76    1
    82    29    77    1
    83    29    78    1
    84    29    79    1
    85    30    80    1
    86    30    81    1
    87    31    82    1
    88    31    83    1
    89    32    84    1
    90    32    85    1
    91    35    86    1
    92    35    87    1
    93    36    88    1
    94    36    89    1
    95    36    90    1
    96    37    91    1
    97    37    92    1
    98    37    93    1
    99    39    94    1
   100    39    95    1
   101    39    96    1
   102    40    97    1
   103    40    98    1
   104    40    99    1
   105    42   100    1
   106    43   101    1
   107    46   102    1
   108    47   103    1
   109    49   104    1
   110    51   105    1
   111    52   106    1
@<TRIPOS>MOLECULE
11672244
 106 111 0 0 0
SMALL
GASTEIGER

@<TRIPOS>ATOM
      1 O          -4.8782   -0.1135   -4.8298 O.3     1  LIG1       -0.4607
      2 O          -6.2854    6.5571   -7.1443 O.2     1  LIG1       -0.2968
      3 O          -6.5487   -4.1012   -9.6797 O.co2   1  LIG1       -0.5492
      4 O          -7.4123   -5.3373   -7.9846 O.co2   1  LIG1       -0.5492
      5 O          -4.7295   -2.0184   -3.5407 O.2     1  LIG1       -0.2456
      6 O          -7.5574    4.7723   -0.2514 O.3     1  LIG1       -0.5067
      7 O          -2.1188    1.8057    1.8322 O.2     1  LIG1       -0.2705
      8 O           1.3203   -0.6550   -0.8030 O.co2   1  LIG1       -0.5452
      9 O           0.2463   -2.6667   -0.6291 O.co2   1  LIG1       -0.5452
     10 N          -3.0785    1.4170   -0.2651 N.am    1  LIG1       -0.2815
     11 C          -6.7250   -0.0062   -7.4240 C.3     1  LIG1       -0.0160
     12 C          -5.8828    1.0707   -8.2025 C.3     1  LIG1       -0.0256
     13 C          -5.7122   -1.2301   -6.9963 C.3     1  LIG1        0.0318
     14 C          -6.5351    2.5160   -8.4070 C.3     1  LIG1       -0.0243
     15 C          -7.0764    2.9888   -7.0123 C.3     1  LIG1       -0.0235
     16 C          -7.4387    0.6285   -6.2002 C.3     1  LIG1       -0.0461
     17 C          -4.9567   -1.7464   -8.2544 C.2     1  LIG1       -0.0596
     18 C          -4.3319   -3.1542   -8.1485 C.3     1  LIG1       -0.0080
     19 C          -8.1058    1.9771   -6.4690 C.3     1  LIG1       -0.0483
     20 C          -6.5472   -2.3707   -6.3368 C.3     1  LIG1       -0.0392
     21 C          -5.2849    0.4503   -9.4867 C.3     1  LIG1       -0.0306
     22 C          -5.3175   -4.2160   -7.6075 C.3     1  LIG1        0.0167
     23 C          -7.5240    4.4849   -6.8958 C.3     1  LIG1        0.0267
     24 C          -5.4041    3.5045   -8.8156 C.3     1  LIG1       -0.0404
     25 C          -5.8496   -3.7279   -6.2399 C.3     1  LIG1       -0.0408
     26 C          -7.8650   -0.5657   -8.3423 C.3     1  LIG1       -0.0584
     27 C          -4.7903   -0.9568   -9.3351 C.2     1  LIG1       -0.0835
     28 C          -4.5297   -0.8227   -6.0261 C.3     1  LIG1        0.1025
     29 C          -7.6113    2.5457   -9.5199 C.3     1  LIG1       -0.0590
     30 C          -3.5262   -3.6533   -9.3760 C.3     1  LIG1       -0.0405
     31 C          -4.5754   -5.5568   -7.3724 C.3     1  LIG1       -0.0412
     32 C          -5.8269    4.9659   -8.8391 C.3     1  LIG1        0.0069
     33 C          -2.8095   -5.0056   -9.1469 C.3     1  LIG1       -0.0343
     34 C          -6.4854    5.4095   -7.5556 C.2     1  LIG1        0.1392
     35 C          -3.8046   -6.0458   -8.5989 C.3     1  LIG1       -0.0470
     36 C          -8.8992    4.7984   -7.5030 C.3     1  LIG1       -0.0528
     37 C          -7.5865    4.8777   -5.3944 C.3     1  LIG1       -0.0528
     38 C          -6.5437   -4.5788   -8.5108 C.2     1  LIG1        0.0485
     39 C          -2.2509   -5.5101  -10.4916 C.3     1  LIG1       -0.0598
     40 C          -1.6154   -4.8317   -8.1846 C.3     1  LIG1       -0.0598
     41 C          -4.8595   -0.8124   -3.6721 C.2     1  LIG1        0.3320
     42 C          -5.0227    0.0768   -2.5036 C.2     1  LIG1        0.0231
     43 C          -4.9336    1.4146   -2.5550 C.2     1  LIG1       -0.0460
     44 C          -5.1102    2.2512   -1.3580 C.ar    1  LIG1       -0.0001
     45 C          -4.2407    2.2318   -0.2404 C.ar    1  LIG1        0.0411
     46 C          -6.2253    3.1114   -1.3673 C.ar    1  LIG1       -0.0113
     47 C          -4.5414    3.0627    0.8486 C.ar    1  LIG1       -0.0364
     48 C          -6.4859    3.9292   -0.2741 C.ar    1  LIG1        0.1175
     49 C          -5.6557    3.9065    0.8332 C.ar    1  LIG1       -0.0184
     50 C          -2.1190    1.2943    0.7191 C.2     1  LIG1        0.2411
     51 C          -0.9299    0.5298    0.2802 C.2     1  LIG1        0.0021
     52 C          -0.9748   -0.7113   -0.2253 C.2     1  LIG1       -0.0344
     53 C           0.3313   -1.4090   -0.5868 C.2     1  LIG1        0.0647
     54 H          -8.0373    4.6789   -1.0903 H       1  LIG1        0.2921
     55 H          -2.8792    0.9191   -1.1254 H       1  LIG1        0.1551
     56 H          -5.0209    1.2777   -7.5533 H       1  LIG1        0.0315
     57 H          -6.2069    2.9188   -6.3367 H       1  LIG1        0.0315
     58 H          -6.7432    0.8137   -5.3869 H       1  LIG1        0.0271
     59 H          -8.1884   -0.0608   -5.7925 H       1  LIG1        0.0271
     60 H          -3.5628   -3.0314   -7.3740 H       1  LIG1        0.0355
     61 H          -8.9596    1.8553   -7.1407 H       1  LIG1        0.0269
     62 H          -8.5249    2.3212   -5.5185 H       1  LIG1        0.0269
     63 H          -7.4699   -2.5542   -6.8910 H       1  LIG1        0.0275
     64 H          -6.8674   -2.0660   -5.3338 H       1  LIG1        0.0275
     65 H          -6.0119    0.4342  -10.3024 H       1  LIG1        0.0310
     66 H          -4.4421    1.0628   -9.8263 H       1  LIG1        0.0310
     67 H          -5.0124    3.2475   -9.8069 H       1  LIG1        0.0275
     68 H          -4.5642    3.4066   -8.1147 H       1  LIG1        0.0275
     69 H          -6.5520   -4.4509   -5.8058 H       1  LIG1        0.0275
     70 H          -5.0231   -3.6647   -5.5231 H       1  LIG1        0.0275
     71 H          -8.4299    0.2180   -8.8398 H       1  LIG1        0.0235
     72 H          -8.6119   -1.1264   -7.7705 H       1  LIG1        0.0235
     73 H          -7.4964   -1.2317   -9.1268 H       1  LIG1        0.0235
     74 H          -4.2769   -1.3425  -10.2113 H       1  LIG1        0.0572
     75 H          -3.9155   -1.6908   -5.7620 H       1  LIG1        0.0706
     76 H          -3.8313   -0.1605   -6.5521 H       1  LIG1        0.0706
     77 H          -8.5879    2.1943   -9.1868 H       1  LIG1        0.0235
     78 H          -7.3272    1.9589  -10.3951 H       1  LIG1        0.0235
     79 H          -7.7845    3.5489   -9.9125 H       1  LIG1        0.0235
     80 H          -2.7675   -2.9053   -9.6434 H       1  LIG1        0.0276
     81 H          -4.1854   -3.7376  -10.2478 H       1  LIG1        0.0276
     82 H          -5.2711   -6.3465   -7.0610 H       1  LIG1        0.0274
     83 H          -3.8735   -5.4471   -6.5356 H       1  LIG1        0.0274
     84 H          -6.5067    5.1862   -9.6668 H       1  LIG1        0.0342
     85 H          -4.9334    5.5830   -8.9930 H       1  LIG1        0.0342
     86 H          -4.5231   -6.3196   -9.3820 H       1  LIG1        0.0271
     87 H          -3.2743   -6.9708   -8.3382 H       1  LIG1        0.0271
     88 H          -8.9185    4.6980   -8.5885 H       1  LIG1        0.0239
     89 H          -9.1842    5.8380   -7.2976 H       1  LIG1        0.0239
     90 H          -9.6843    4.1608   -7.0847 H       1  LIG1        0.0239
     91 H          -6.6253    4.6991   -4.8983 H       1  LIG1        0.0239
     92 H          -8.3580    4.3237   -4.8519 H       1  LIG1        0.0239
     93 H          -7.8195    5.9416   -5.2649 H       1  LIG1        0.0239
     94 H          -3.0520   -5.6629  -11.2232 H       1  LIG1        0.0235
     95 H          -1.7271   -6.4649  -10.3684 H       1  LIG1        0.0235
     96 H          -1.5418   -4.7924  -10.9195 H       1  LIG1        0.0235
     97 H          -1.9174   -4.4861   -7.1922 H       1  LIG1        0.0235
     98 H          -0.8983   -4.1022   -8.5786 H       1  LIG1        0.0235
     99 H          -1.0803   -5.7785   -8.0485 H       1  LIG1        0.0235
    100 H          -5.1861   -0.4514   -1.5691 H       1  LIG1        0.0689
    101 H          -4.7661    1.9451   -3.4887 H       1  LIG1        0.0626
    102 H          -6.8847    3.1258   -2.2308 H       1  LIG1        0.0660
    103 H          -3.9133    3.0917    1.7328 H       1  LIG1        0.0637
    104 H          -5.8601    4.5460    1.6866 H       1  LIG1        0.0655
    105 H           0.0190    1.0289    0.4536 H       1  LIG1        0.0670
    106 H          -1.8957   -1.2727   -0.3303 H       1  LIG1        0.0637
@<TRIPOS>BOND
     1     1    41    1
     2     1    28    1
     3     2    34    2
     4     3    38   ar
     5     4    38   ar
     6     5    41    2
     7     6    48    1
     8     7    50    2
     9     8    53   ar
    10     9    53   ar
    11    10    45    1
    12    10    50   am
    13    11    16    1
    14    11    12    1
    15    11    26    1
    16    11    13    1
    17    12    14    1
    18    13    20    1
    19    13    17    1
    20    13    28    1
    21    14    15    1
    22    14    24    1
    23    14    29    1
    24    15    19    1
    25    15    23    1
    26    16    19    1
    27    17    18    1
    28    17    27    2
    29    18    30    1
    30    18    22    1
    31    20    25    1
    32    21    27    1
    33    21    12    1
    34    22    31    1
    35    22    25    1
    36    22    38    1
    37    23    34    1
    38    23    37    1
    39    23    36    1
    40    24    32    1
    41    30    33    1
    42    31    35    1
    43    32    34    1
    44    33    35    1
    45    33    40    1
    46    33    39    1
    47    41    42    1
    48    42    43    2
    49    43    44    1
    50    44    46   ar
    51    44    45   ar
    52    45    47   ar
    53    46    48   ar
    54    47    49   ar
    55    48    49   ar
    56    50    51    1
    57    51    52    2
    58    52    53    1
    59     6    54    1
    60    10    55    1
    61    12    56    1
    62    15    57    1
    63    16    58    1
    64    16    59    1
    65    18    60    1
    66    19    61    1
    67    19    62    1
    68    20    63    1
    69    20    64    1
    70    21    65    1
    71    21    66    1
    72    24    67    1
    73    24    68    1
    74    25    69    1
    75    25    70    1
    76    26    71    1
    77    26    72    1
    78    26    73    1
    79    27    74    1
    80    28    75    1
    81    28    76    1
    82    29    77    1
    83    29    78    1
    84    29    79    1
    85    30    80    1
    86    30    81    1
    87    31    82    1
    88    31    83    1
    89    32    84    1
    90    32    85    1
    91    35    86    1
    92    35    87    1
    93    36    88    1
    94    36    89    1
    95    36    90    1
    96    37    91    1
    97    37    92    1
    98    37    93    1
    99    39    94    1
   100    39    95    1
   101    39    96    1
   102    40    97    1
   103    40    98    1
   104    40    99    1
   105    42   100    1
   106    43   101    1
   107    46   102    1
   108    47   103    1
   109    49   104    1
   110    51   105    1
   111    52   106    1
@<TRIPOS>MOLECULE
11672244
 106 111 0 0 0
SMALL
GASTEIGER

@<TRIPOS>ATOM
      1 O          -4.9907   -0.1911   -4.7322 O.3     1  LIG1       -0.4607
      2 O          -6.3459    6.5893   -7.1802 O.2     1  LIG1       -0.2968
      3 O          -6.6402   -4.1429   -9.5801 O.co2   1  LIG1       -0.5492
      4 O          -7.4359   -5.4104   -7.8760 O.co2   1  LIG1       -0.5492
      5 O          -4.6557   -2.0621   -3.4215 O.2     1  LIG1       -0.2456
      6 O          -2.2232    2.5709    1.8508 O.3     1  LIG1       -0.5067
      7 O          -1.6174    0.5189   -4.3971 O.2     1  LIG1       -0.2705
      8 O           2.3822   -1.7547   -6.4142 O.co2   1  LIG1       -0.5452
      9 O           1.2609   -1.1076   -8.2975 O.co2   1  LIG1       -0.5452
     10 N          -0.0467    0.2025   -2.7011 N.am    1  LIG1       -0.2815
     11 C          -6.7755    0.0001   -7.3753 C.3     1  LIG1       -0.0160
     12 C          -5.9191    1.0674   -8.1550 C.3     1  LIG1       -0.0256
     13 C          -5.7798   -1.2346   -6.9404 C.3     1  LIG1        0.0318
     14 C          -6.5552    2.5178   -8.3734 C.3     1  LIG1       -0.0243
     15 C          -7.1074    3.0060   -6.9893 C.3     1  LIG1       -0.0235
     16 C          -7.4793    0.6539   -6.1565 C.3     1  LIG1       -0.0461
     17 C          -5.0198   -1.7582   -8.1912 C.2     1  LIG1       -0.0596
     18 C          -4.3908   -3.1626   -8.0770 C.3     1  LIG1       -0.0080
     19 C          -8.1429    2.0014   -6.4433 C.3     1  LIG1       -0.0483
     20 C          -6.6194   -2.3729   -6.2830 C.3     1  LIG1       -0.0392
     21 C          -5.3159    0.4380   -9.4311 C.3     1  LIG1       -0.0306
     22 C          -5.3692   -4.2278   -7.5273 C.3     1  LIG1        0.0167
     23 C          -7.5528    4.5043   -6.8948 C.3     1  LIG1        0.0267
     24 C          -5.4098    3.4943   -8.7714 C.3     1  LIG1       -0.0404
     25 C          -5.9137   -3.7268   -6.1678 C.3     1  LIG1       -0.0408
     26 C          -7.9179   -0.5522   -8.2920 C.3     1  LIG1       -0.0584
     27 C          -4.8381   -0.9720   -9.2716 C.2     1  LIG1       -0.0835
     28 C          -4.6134   -0.8335   -5.9571 C.3     1  LIG1        0.1025
     29 C          -7.6180    2.5511   -9.4984 C.3     1  LIG1       -0.0590
     30 C          -3.5836   -3.6641   -9.3017 C.3     1  LIG1       -0.0405
     31 C          -4.6064   -5.5554   -7.2763 C.3     1  LIG1       -0.0412
     32 C          -5.8201    4.9585   -8.8171 C.3     1  LIG1        0.0069
     33 C          -2.8495   -5.0043   -9.0619 C.3     1  LIG1       -0.0343
     34 C          -6.5131    5.4245   -7.5596 C.2     1  LIG1        0.1392
     35 C          -3.8320   -6.0491   -8.5001 C.3     1  LIG1       -0.0470
     36 C          -8.9258    4.8109   -7.5112 C.3     1  LIG1       -0.0528
     37 C          -7.6220    4.9166   -5.3991 C.3     1  LIG1       -0.0528
     38 C          -6.5977   -4.6240   -8.4137 C.2     1  LIG1        0.0485
     39 C          -2.2888   -5.5125  -10.4045 C.3     1  LIG1       -0.0598
     40 C          -1.6531   -4.8077   -8.1059 C.3     1  LIG1       -0.0598
     41 C          -4.6345   -0.8588   -3.6102 C.2     1  LIG1        0.3320
     42 C          -4.0469    0.1230   -2.6794 C.2     1  LIG1        0.0231
     43 C          -2.9521   -0.2783   -2.0157 C.2     1  LIG1       -0.0460
     44 C          -2.0713    0.6306   -1.2755 C.ar    1  LIG1       -0.0001
     45 C          -0.6971    0.7618   -1.5758 C.ar    1  LIG1        0.0411
     46 C          -2.5894    1.2515   -0.1247 C.ar    1  LIG1       -0.0113
     47 C           0.1335    1.4554   -0.6806 C.ar    1  LIG1       -0.0364
     48 C          -1.7488    1.9687    0.7221 C.ar    1  LIG1        0.1175
     49 C          -0.3916    2.0674    0.4578 C.ar    1  LIG1       -0.0184
     50 C          -0.5574    0.0711   -3.9825 C.2     1  LIG1        0.2411
     51 C           0.4319   -0.5935   -4.8719 C.2     1  LIG1        0.0021
     52 C           0.3186   -0.6083   -6.2081 C.2     1  LIG1       -0.0344
     53 C           1.4218   -1.2353   -7.0529 C.2     1  LIG1        0.0647
     54 H          -3.1821    2.4204    1.8907 H       1  LIG1        0.2921
     55 H           0.9592    0.1141   -2.6410 H       1  LIG1        0.1551
     56 H          -5.0609    1.2721   -7.5007 H       1  LIG1        0.0315
     57 H          -6.2439    2.9420   -6.3055 H       1  LIG1        0.0315
     58 H          -6.7753    0.8509   -5.3519 H       1  LIG1        0.0271
     59 H          -8.2283   -0.0274   -5.7346 H       1  LIG1        0.0271
     60 H          -3.6209   -3.0325   -7.3048 H       1  LIG1        0.0355
     61 H          -8.9918    1.8750   -7.1203 H       1  LIG1        0.0269
     62 H          -8.5676    2.3561   -5.4992 H       1  LIG1        0.0269
     63 H          -7.5356   -2.5621   -6.8464 H       1  LIG1        0.0275
     64 H          -6.9467   -2.0627   -5.2834 H       1  LIG1        0.0275
     65 H          -6.0348    0.4263  -10.2538 H       1  LIG1        0.0310
     66 H          -4.4634    1.0408   -9.7639 H       1  LIG1        0.0310
     67 H          -5.0022    3.2251   -9.7530 H       1  LIG1        0.0275
     68 H          -4.5829    3.3970   -8.0550 H       1  LIG1        0.0275
     69 H          -6.6143   -4.4487   -5.7290 H       1  LIG1        0.0275
     70 H          -5.0922   -3.6510   -5.4464 H       1  LIG1        0.0275
     71 H          -8.4759    0.2341   -8.7928 H       1  LIG1        0.0235
     72 H          -8.6682   -1.1056   -7.7175 H       1  LIG1        0.0235
     73 H          -7.5531   -1.2236   -9.0738 H       1  LIG1        0.0235
     74 H          -4.3049   -1.3562  -10.1365 H       1  LIG1        0.0572
     75 H          -3.9753   -1.6955   -5.7317 H       1  LIG1        0.0706
     76 H          -3.9336   -0.1297   -6.4518 H       1  LIG1        0.0706
     77 H          -8.5997    2.2052   -9.1751 H       1  LIG1        0.0235
     78 H          -7.3274    1.9617  -10.3696 H       1  LIG1        0.0235
     79 H          -7.7809    3.5545   -9.8946 H       1  LIG1        0.0235
     80 H          -2.8324   -2.9118   -9.5784 H       1  LIG1        0.0276
     81 H          -4.2470   -3.7637  -10.1690 H       1  LIG1        0.0276
     82 H          -5.2882   -6.3519   -6.9521 H       1  LIG1        0.0274
     83 H          -3.9035   -5.4239   -6.4434 H       1  LIG1        0.0274
     84 H          -6.4740    5.1747   -9.6666 H       1  LIG1        0.0342
     85 H          -4.9176    5.5671   -8.9515 H       1  LIG1        0.0342
     86 H          -4.5491   -6.3382   -9.2790 H       1  LIG1        0.0271
     87 H          -3.2909   -6.9655   -8.2315 H       1  LIG1        0.0271
     88 H          -8.9406    4.6992   -8.5956 H       1  LIG1        0.0239
     89 H          -9.2122    5.8526   -7.3183 H       1  LIG1        0.0239
     90 H          -9.7126    4.1779   -7.0894 H       1  LIG1        0.0239
     91 H          -6.6614    4.7489   -4.8982 H       1  LIG1        0.0239
     92 H          -8.3929    4.3663   -4.8522 H       1  LIG1        0.0239
     93 H          -7.8598    5.9811   -5.2840 H       1  LIG1        0.0239
     94 H          -3.0896   -5.6764  -11.1340 H       1  LIG1        0.0235
     95 H          -1.7559   -6.4616  -10.2768 H       1  LIG1        0.0235
     96 H          -1.5869   -4.7909  -10.8381 H       1  LIG1        0.0235
     97 H          -1.9547   -4.4591   -7.1145 H       1  LIG1        0.0235
     98 H          -0.9467   -4.0719   -8.5079 H       1  LIG1        0.0235
     99 H          -1.1054   -5.7467   -7.9658 H       1  LIG1        0.0235
    100 H          -4.3790    1.1493   -2.7295 H       1  LIG1        0.0689
    101 H          -2.5884   -1.3004   -2.1154 H       1  LIG1        0.0626
    102 H          -3.6412    1.1314    0.1184 H       1  LIG1        0.0660
    103 H           1.1975    1.5549   -0.8810 H       1  LIG1        0.0637
    104 H           0.2582    2.6185    1.1308 H       1  LIG1        0.0655
    105 H           1.2858   -1.0736   -4.4059 H       1  LIG1        0.0670
    106 H          -0.5246   -0.1526   -6.7159 H       1  LIG1        0.0637
@<TRIPOS>BOND
     1     1    41    1
     2     1    28    1
     3     2    34    2
     4     3    38   ar
     5     4    38   ar
     6     5    41    2
     7     6    48    1
     8     7    50    2
     9     8    53   ar
    10     9    53   ar
    11    10    45    1
    12    10    50   am
    13    11    16    1
    14    11    12    1
    15    11    26    1
    16    11    13    1
    17    12    14    1
    18    13    20    1
    19    13    17    1
    20    13    28    1
    21    14    15    1
    22    14    24    1
    23    14    29    1
    24    15    19    1
    25    15    23    1
    26    16    19    1
    27    17    18    1
    28    17    27    2
    29    18    30    1
    30    18    22    1
    31    20    25    1
    32    21    27    1
    33    21    12    1
    34    22    31    1
    35    22    25    1
    36    22    38    1
    37    23    34    1
    38    23    37    1
    39    23    36    1
    40    24    32    1
    41    30    33    1
    42    31    35    1
    43    32    34    1
    44    33    35    1
    45    33    40    1
    46    33    39    1
    47    41    42    1
    48    42    43    2
    49    43    44    1
    50    44    46   ar
    51    44    45   ar
    52    45    47   ar
    53    46    48   ar
    54    47    49   ar
    55    48    49   ar
    56    50    51    1
    57    51    52    2
    58    52    53    1
    59     6    54    1
    60    10    55    1
    61    12    56    1
    62    15    57    1
    63    16    58    1
    64    16    59    1
    65    18    60    1
    66    19    61    1
    67    19    62    1
    68    20    63    1
    69    20    64    1
    70    21    65    1
    71    21    66    1
    72    24    67    1
    73    24    68    1
    74    25    69    1
    75    25    70    1
    76    26    71    1
    77    26    72    1
    78    26    73    1
    79    27    74    1
    80    28    75    1
    81    28    76    1
    82    29    77    1
    83    29    78    1
    84    29    79    1
    85    30    80    1
    86    30    81    1
    87    31    82    1
    88    31    83    1
    89    32    84    1
    90    32    85    1
    91    35    86    1
    92    35    87    1
    93    36    88    1
    94    36    89    1
    95    36    90    1
    96    37    91    1
    97    37    92    1
    98    37    93    1
    99    39    94    1
   100    39    95    1
   101    39    96    1
   102    40    97    1
   103    40    98    1
   104    40    99    1
   105    42   100    1
   106    43   101    1
   107    46   102    1
   108    47   103    1
   109    49   104    1
   110    51   105    1
   111    52   106    1
@<TRIPOS>MOLECULE
11672244
 106 111 0 0 0
SMALL
GASTEIGER

@<TRIPOS>ATOM
      1 O          -3.7126    0.2189   -6.3087 O.3     1  LIG1       -0.4607
      2 O          -6.0945    6.5018   -7.2236 O.2     1  LIG1       -0.2968
      3 O          -6.5486   -4.2026   -9.7043 O.co2   1  LIG1       -0.5492
      4 O          -7.5310   -5.1875   -7.9109 O.co2   1  LIG1       -0.5492
      5 O          -1.9564   -1.1914   -6.8396 O.2     1  LIG1       -0.2456
      6 O          -0.7751    6.0558   -8.7888 O.3     1  LIG1       -0.5067
      7 O           1.8138    0.0603   -8.3236 O.2     1  LIG1       -0.2705
      8 O           4.2286   -2.3261  -12.0446 O.co2   1  LIG1       -0.5452
      9 O           5.0792   -3.4042  -10.2173 O.co2   1  LIG1       -0.5452
     10 N           1.3117    1.1309  -10.3286 N.am    1  LIG1       -0.2815
     11 C          -6.6844    0.0038   -7.3926 C.3     1  LIG1       -0.0160
     12 C          -5.9044    1.0501   -8.2716 C.3     1  LIG1       -0.0256
     13 C          -5.6877   -1.2399   -6.9961 C.3     1  LIG1        0.0318
     14 C          -6.5644    2.4935   -8.4698 C.3     1  LIG1       -0.0243
     15 C          -7.0022    3.0128   -7.0507 C.3     1  LIG1       -0.0235
     16 C          -7.2415    0.6877   -6.1186 C.3     1  LIG1       -0.0461
     17 C          -4.9671   -1.7657   -8.2576 C.2     1  LIG1       -0.0596
     18 C          -4.3459   -3.1757   -8.1432 C.3     1  LIG1       -0.0080
     19 C          -7.9600    2.0113   -6.3776 C.3     1  LIG1       -0.0483
     20 C          -6.5400   -2.3818   -6.3365 C.3     1  LIG1       -0.0392
     21 C          -5.3826    0.3813   -9.5607 C.3     1  LIG1       -0.0306
     22 C          -5.3462   -4.2306   -7.6101 C.3     1  LIG1        0.0167
     23 C          -7.4586    4.5073   -6.9560 C.3     1  LIG1        0.0267
     24 C          -5.4612    3.4676   -8.9854 C.3     1  LIG1       -0.0404
     25 C          -5.8496   -3.7419   -6.2316 C.3     1  LIG1       -0.0408
     26 C          -7.9094   -0.5442   -8.1963 C.3     1  LIG1       -0.0584
     27 C          -4.8575   -1.0103   -9.3697 C.2     1  LIG1       -0.0835
     28 C          -4.5684   -0.8753   -5.9344 C.3     1  LIG1        0.1025
     29 C          -7.7145    2.4934   -9.5045 C.3     1  LIG1       -0.0590
     30 C          -3.5235   -3.6721   -9.3572 C.3     1  LIG1       -0.0405
     31 C          -4.6429   -5.5959   -7.4050 C.3     1  LIG1       -0.0412
     32 C          -5.8711    4.9348   -8.9930 C.3     1  LIG1        0.0069
     33 C          -2.8254   -5.0322   -9.1225 C.3     1  LIG1       -0.0343
     34 C          -6.4130    5.3912   -7.6587 C.2     1  LIG1        0.1392
     35 C          -3.8542   -6.0664   -8.6281 C.3     1  LIG1       -0.0470
     36 C          -8.8404    4.8093   -7.5522 C.3     1  LIG1       -0.0528
     37 C          -7.5055    4.9389   -5.4659 C.3     1  LIG1       -0.0528
     38 C          -6.5927   -4.5661   -8.4970 C.2     1  LIG1        0.0485
     39 C          -2.2234   -5.5204  -10.4541 C.3     1  LIG1       -0.0598
     40 C          -1.6657   -4.8884   -8.1144 C.3     1  LIG1       -0.0598
     41 C          -2.4816   -0.0954   -6.7953 C.2     1  LIG1        0.3320
     42 C          -1.8718    1.1684   -7.2679 C.2     1  LIG1        0.0231
     43 C          -0.9554    1.1789   -8.2521 C.2     1  LIG1       -0.0460
     44 C          -0.3045    2.3808   -8.8415 C.ar    1  LIG1       -0.0001
     45 C           0.6930    2.3094   -9.8472 C.ar    1  LIG1        0.0411
     46 C          -0.7844    3.6662   -8.4955 C.ar    1  LIG1       -0.0113
     47 C           1.1205    3.4858  -10.4977 C.ar    1  LIG1       -0.0364
     48 C          -0.3108    4.8175   -9.1250 C.ar    1  LIG1        0.1175
     49 C           0.6333    4.7359  -10.1293 C.ar    1  LIG1       -0.0184
     50 C           1.8422    0.1202   -9.5434 C.2     1  LIG1        0.2411
     51 C           2.6060   -0.8429  -10.3862 C.2     1  LIG1        0.0021
     52 C           3.5021   -1.7005   -9.8778 C.2     1  LIG1       -0.0344
     53 C           4.3374   -2.5715  -10.8089 C.2     1  LIG1        0.0647
     54 H          -1.4152    5.9596   -8.0642 H       1  LIG1        0.2921
     55 H           1.7425    1.1994  -11.2419 H       1  LIG1        0.1551
     56 H          -5.0063    1.2929   -7.7019 H       1  LIG1        0.0315
     57 H          -6.0790    2.9827   -6.4468 H       1  LIG1        0.0315
     58 H          -6.4317    0.9054   -5.4160 H       1  LIG1        0.0271
     59 H          -7.9278    0.0146   -5.5906 H       1  LIG1        0.0271
     60 H          -3.5910   -3.0620   -7.3561 H       1  LIG1        0.0355
     61 H          -8.8663    1.8503   -6.9680 H       1  LIG1        0.0269
     62 H          -8.2988    2.3834   -5.4066 H       1  LIG1        0.0269
     63 H          -7.4641   -2.5600   -6.8887 H       1  LIG1        0.0275
     64 H          -6.8527   -2.0753   -5.3304 H       1  LIG1        0.0275
     65 H          -6.1597    0.3199  -10.3268 H       1  LIG1        0.0310
     66 H          -4.5717    0.9876   -9.9803 H       1  LIG1        0.0310
     67 H          -5.1522    3.1913  -10.0004 H       1  LIG1        0.0275
     68 H          -4.5680    3.3728   -8.3528 H       1  LIG1        0.0275
     69 H          -6.5490   -4.4583   -5.7822 H       1  LIG1        0.0275
     70 H          -5.0148   -3.6788   -5.5228 H       1  LIG1        0.0275
     71 H          -8.4702    0.2332   -8.7066 H       1  LIG1        0.0235
     72 H          -8.6409   -1.0296   -7.5412 H       1  LIG1        0.0235
     73 H          -7.6196   -1.2711   -8.9611 H       1  LIG1        0.0235
     74 H          -4.3676   -1.4204  -10.2491 H       1  LIG1        0.0572
     75 H          -5.0356   -0.5826   -4.9880 H       1  LIG1        0.0706
     76 H          -3.9598   -1.7455   -5.6676 H       1  LIG1        0.0706
     77 H          -8.6784    2.2191   -9.0735 H       1  LIG1        0.0235
     78 H          -7.5226    1.8246  -10.3454 H       1  LIG1        0.0235
     79 H          -7.8664    3.4701   -9.9674 H       1  LIG1        0.0235
     80 H          -2.7550   -2.9265   -9.6045 H       1  LIG1        0.0276
     81 H          -4.1679   -3.7472  -10.2408 H       1  LIG1        0.0276
     82 H          -5.3669   -6.3772   -7.1388 H       1  LIG1        0.0274
     83 H          -3.9602   -5.5338   -6.5480 H       1  LIG1        0.0274
     84 H          -6.6168    5.1545   -9.7616 H       1  LIG1        0.0342
     85 H          -4.9884    5.5420   -9.2274 H       1  LIG1        0.0342
     86 H          -4.5591   -6.3020   -9.4357 H       1  LIG1        0.0271
     87 H          -3.3497   -7.0097   -8.3825 H       1  LIG1        0.0271
     88 H          -8.8604    4.7476   -8.6406 H       1  LIG1        0.0239
     89 H          -9.1479    5.8353   -7.3132 H       1  LIG1        0.0239
     90 H          -9.6098    4.1405   -7.1539 H       1  LIG1        0.0239
     91 H          -6.5546    4.7311   -4.9620 H       1  LIG1        0.0239
     92 H          -8.3035    4.4331   -4.9140 H       1  LIG1        0.0239
     93 H          -7.6944    6.0144   -5.3632 H       1  LIG1        0.0239
     94 H          -2.9973   -5.6450  -11.2195 H       1  LIG1        0.0235
     95 H          -1.7203   -6.4861  -10.3299 H       1  LIG1        0.0235
     96 H          -1.4861   -4.8068  -10.8393 H       1  LIG1        0.0235
     97 H          -1.9991   -4.5577   -7.1270 H       1  LIG1        0.0235
     98 H          -0.9268   -4.1601   -8.4681 H       1  LIG1        0.0235
     99 H          -1.1470   -5.8441   -7.9761 H       1  LIG1        0.0235
    100 H          -2.2414    2.0551   -6.7767 H       1  LIG1        0.0689
    101 H          -0.6735    0.2231   -8.6917 H       1  LIG1        0.0626
    102 H          -1.5556    3.7814   -7.7434 H       1  LIG1        0.0660
    103 H           1.8792    3.4385  -11.2759 H       1  LIG1        0.0637
    104 H           0.9952    5.6340  -10.6193 H       1  LIG1        0.0655
    105 H           2.4478   -0.8115  -11.4592 H       1  LIG1        0.0670
    106 H           3.6798   -1.7713   -8.8104 H       1  LIG1        0.0637
@<TRIPOS>BOND
     1     1    41    1
     2     1    28    1
     3     2    34    2
     4     3    38   ar
     5     4    38   ar
     6     5    41    2
     7     6    48    1
     8     7    50    2
     9     8    53   ar
    10     9    53   ar
    11    10    45    1
    12    10    50   am
    13    11    16    1
    14    11    12    1
    15    11    26    1
    16    11    13    1
    17    12    14    1
    18    13    20    1
    19    13    17    1
    20    13    28    1
    21    14    15    1
    22    14    24    1
    23    14    29    1
    24    15    19    1
    25    15    23    1
    26    16    19    1
    27    17    18    1
    28    17    27    2
    29    18    30    1
    30    18    22    1
    31    20    25    1
    32    21    27    1
    33    21    12    1
    34    22    31    1
    35    22    25    1
    36    22    38    1
    37    23    34    1
    38    23    37    1
    39    23    36    1
    40    24    32    1
    41    30    33    1
    42    31    35    1
    43    32    34    1
    44    33    35    1
    45    33    40    1
    46    33    39    1
    47    41    42    1
    48    42    43    2
    49    43    44    1
    50    44    46   ar
    51    44    45   ar
    52    45    47   ar
    53    46    48   ar
    54    47    49   ar
    55    48    49   ar
    56    50    51    1
    57    51    52    2
    58    52    53    1
    59     6    54    1
    60    10    55    1
    61    12    56    1
    62    15    57    1
    63    16    58    1
    64    16    59    1
    65    18    60    1
    66    19    61    1
    67    19    62    1
    68    20    63    1
    69    20    64    1
    70    21    65    1
    71    21    66    1
    72    24    67    1
    73    24    68    1
    74    25    69    1
    75    25    70    1
    76    26    71    1
    77    26    72    1
    78    26    73    1
    79    27    74    1
    80    28    75    1
    81    28    76    1
    82    29    77    1
    83    29    78    1
    84    29    79    1
    85    30    80    1
    86    30    81    1
    87    31    82    1
    88    31    83    1
    89    32    84    1
    90    32    85    1
    91    35    86    1
    92    35    87    1
    93    36    88    1
    94    36    89    1
    95    36    90    1
    96    37    91    1
    97    37    92    1
    98    37    93    1
    99    39    94    1
   100    39    95    1
   101    39    96    1
   102    40    97    1
   103    40    98    1
   104    40    99    1
   105    42   100    1
   106    43   101    1
   107    46   102    1
   108    47   103    1
   109    49   104    1
   110    51   105    1
   111    52   106    1
@<TRIPOS>MOLECULE
11672244
 106 111 0 0 0
SMALL
GASTEIGER

@<TRIPOS>ATOM
      1 O          -3.8183    0.2546   -6.2902 O.3     1  LIG1       -0.4607
      2 O          -6.5142    6.6208   -7.4012 O.2     1  LIG1       -0.2968
      3 O          -6.5405   -4.1564   -9.6932 O.co2   1  LIG1       -0.5492
      4 O          -7.3461   -5.4314   -7.9974 O.co2   1  LIG1       -0.5492
      5 O          -1.9846   -1.0942   -6.6773 O.2     1  LIG1       -0.2456
      6 O          -1.4806    5.8164  -10.2869 O.3     1  LIG1       -0.5067
      7 O          -1.9716    3.1771   -4.2105 O.2     1  LIG1       -0.2705
      8 O           0.0777    2.1038    0.3365 O.co2   1  LIG1       -0.5452
      9 O           1.8648    2.3700   -1.0634 O.co2   1  LIG1       -0.5452
     10 N          -0.0068    3.7913   -5.3082 N.am    1  LIG1       -0.2815
     11 C          -6.7587    0.0062   -7.4041 C.3     1  LIG1       -0.0160
     12 C          -5.9946    1.0673   -8.2768 C.3     1  LIG1       -0.0256
     13 C          -5.7477   -1.2316   -7.0181 C.3     1  LIG1        0.0318
     14 C          -6.6809    2.5025   -8.4674 C.3     1  LIG1       -0.0243
     15 C          -7.1178    3.0150   -7.0483 C.3     1  LIG1       -0.0235
     16 C          -7.3168    0.6796   -6.1238 C.3     1  LIG1       -0.0461
     17 C          -5.0000   -1.7341   -8.2762 C.2     1  LIG1       -0.0596
     18 C          -4.3423   -3.1301   -8.1598 C.3     1  LIG1       -0.0080
     19 C          -8.0541    1.9954   -6.3710 C.3     1  LIG1       -0.0483
     20 C          -6.5941   -2.3998   -6.3998 C.3     1  LIG1       -0.0392
     21 C          -5.4601    0.4116   -9.5675 C.3     1  LIG1       -0.0306
     22 C          -5.3031   -4.2193   -7.6197 C.3     1  LIG1        0.0167
     23 C          -7.6061    4.5003   -6.9526 C.3     1  LIG1        0.0267
     24 C          -5.5973    3.4963   -8.9686 C.3     1  LIG1       -0.0404
     25 C          -5.8703   -3.7384   -6.2655 C.3     1  LIG1       -0.0408
     26 C          -7.9792   -0.5485   -8.2074 C.3     1  LIG1       -0.0584
     27 C          -4.9031   -0.9702   -9.3838 C.2     1  LIG1       -0.0835
     28 C          -4.6520   -0.8614   -5.9358 C.3     1  LIG1        0.1025
     29 C          -7.8299    2.4928   -9.5005 C.3     1  LIG1       -0.0590
     30 C          -3.5207   -3.6183   -9.3811 C.3     1  LIG1       -0.0405
     31 C          -4.5247   -5.5353   -7.3652 C.3     1  LIG1       -0.0412
     32 C          -6.0341    4.9523   -9.0095 C.3     1  LIG1        0.0069
     33 C          -2.7741   -4.9542   -9.1427 C.3     1  LIG1       -0.0343
     34 C          -6.6547    5.4353   -7.7202 C.2     1  LIG1        0.1392
     35 C          -3.7432   -6.0150   -8.5874 C.3     1  LIG1       -0.0470
     36 C          -9.0291    4.7466   -7.4753 C.3     1  LIG1       -0.0528
     37 C          -7.5780    4.9485   -5.4668 C.3     1  LIG1       -0.0528
     38 C          -6.5127   -4.6345   -8.5249 C.2     1  LIG1        0.0485
     39 C          -2.2052   -5.4571  -10.4838 C.3     1  LIG1       -0.0598
     40 C          -1.5853   -4.7491   -8.1808 C.3     1  LIG1       -0.0598
     41 C          -2.5396   -0.0054   -6.6496 C.2     1  LIG1        0.3320
     42 C          -1.8302    1.2198   -7.0816 C.2     1  LIG1        0.0231
     43 C          -2.2862    2.4655   -6.8858 C.2     1  LIG1       -0.0460
     44 C          -1.5318    3.6550   -7.2994 C.ar    1  LIG1       -0.0001
     45 C          -0.4660    4.2223   -6.5723 C.ar    1  LIG1        0.0411
     46 C          -1.8586    4.1865   -8.5617 C.ar    1  LIG1       -0.0113
     47 C           0.2627    5.2807   -7.1454 C.ar    1  LIG1       -0.0364
     48 C          -1.1560    5.2694   -9.0801 C.ar    1  LIG1        0.1175
     49 C          -0.0918    5.8156   -8.3843 C.ar    1  LIG1       -0.0184
     50 C          -0.7526    3.2531   -4.2758 C.2     1  LIG1        0.2411
     51 C           0.1336    2.8731   -3.1427 C.2     1  LIG1        0.0021
     52 C          -0.3304    2.6612   -1.9035 C.2     1  LIG1       -0.0344
     53 C           0.6355    2.3355   -0.7717 C.2     1  LIG1        0.0647
     54 H          -2.2898    5.3851  -10.6063 H       1  LIG1        0.2921
     55 H           0.9220    4.0934   -5.0422 H       1  LIG1        0.1551
     56 H          -5.1000    1.3200   -7.7063 H       1  LIG1        0.0315
     57 H          -6.1913    3.0024   -6.4490 H       1  LIG1        0.0315
     58 H          -6.5053    0.9073   -5.4264 H       1  LIG1        0.0271
     59 H          -7.9903   -0.0044   -5.5937 H       1  LIG1        0.0271
     60 H          -3.5840   -2.9907   -7.3798 H       1  LIG1        0.0355
     61 H          -8.9620    1.8235   -6.9555 H       1  LIG1        0.0269
     62 H          -8.3901    2.3614   -5.3966 H       1  LIG1        0.0269
     63 H          -7.4831   -2.6074   -6.9985 H       1  LIG1        0.0275
     64 H          -6.9620   -2.1053   -5.4092 H       1  LIG1        0.0275
     65 H          -6.2360    0.3394  -10.3340 H       1  LIG1        0.0310
     66 H          -4.6608    1.0352   -9.9843 H       1  LIG1        0.0310
     67 H          -5.2446    3.2138   -9.9670 H       1  LIG1        0.0275
     68 H          -4.7333    3.4331   -8.2995 H       1  LIG1        0.0275
     69 H          -6.5689   -4.4716   -5.8423 H       1  LIG1        0.0275
     70 H          -5.0661   -3.6515   -5.5248 H       1  LIG1        0.0275
     71 H          -8.5612    0.2268   -8.6954 H       1  LIG1        0.0235
     72 H          -8.6943   -1.0614   -7.5553 H       1  LIG1        0.0235
     73 H          -7.6809   -1.2523   -8.9905 H       1  LIG1        0.0235
     74 H          -4.4011   -1.3649  -10.2625 H       1  LIG1        0.0572
     75 H          -5.1372   -0.5950   -4.9893 H       1  LIG1        0.0706
     76 H          -4.0302   -1.7252   -5.6758 H       1  LIG1        0.0706
     77 H          -8.7866    2.1894   -9.0734 H       1  LIG1        0.0235
     78 H          -7.6208    1.8425  -10.3524 H       1  LIG1        0.0235
     79 H          -8.0085    3.4741   -9.9441 H       1  LIG1        0.0235
     80 H          -2.7805   -2.8529   -9.6512 H       1  LIG1        0.0276
     81 H          -4.1762   -3.7248  -10.2532 H       1  LIG1        0.0276
     82 H          -5.1974   -6.3407   -7.0436 H       1  LIG1        0.0274
     83 H          -3.8270   -5.3951   -6.5298 H       1  LIG1        0.0274
     84 H          -6.7433    5.1432   -9.8195 H       1  LIG1        0.0342
     85 H          -5.1509    5.5714   -9.2091 H       1  LIG1        0.0342
     86 H          -4.4545   -6.3129   -9.3687 H       1  LIG1        0.0271
     87 H          -3.1911   -6.9255   -8.3198 H       1  LIG1        0.0271
     88 H          -9.1086    4.6353   -8.5571 H       1  LIG1        0.0239
     89 H          -9.3466    5.7751   -7.2611 H       1  LIG1        0.0239
     90 H          -9.7583    4.0803   -7.0045 H       1  LIG1        0.0239
     91 H          -6.5846    4.8007   -5.0276 H       1  LIG1        0.0239
     92 H          -8.3063    4.4053   -4.8565 H       1  LIG1        0.0239
     93 H          -7.8186    6.0131   -5.3600 H       1  LIG1        0.0239
     94 H          -3.0031   -5.6291  -11.2148 H       1  LIG1        0.0235
     95 H          -1.6651   -6.4019  -10.3541 H       1  LIG1        0.0235
     96 H          -1.5087   -4.7298  -10.9157 H       1  LIG1        0.0235
     97 H          -1.8953   -4.3998   -7.1921 H       1  LIG1        0.0235
     98 H          -0.8811   -4.0099   -8.5804 H       1  LIG1        0.0235
     99 H          -1.0331   -5.6845   -8.0350 H       1  LIG1        0.0235
    100 H          -0.8697    1.0328   -7.5485 H       1  LIG1        0.0689
    101 H          -3.2267    2.6576   -6.3752 H       1  LIG1        0.0626
    102 H          -2.6530    3.7294   -9.1429 H       1  LIG1        0.0660
    103 H           1.0953    5.7298   -6.6088 H       1  LIG1        0.0637
    104 H           0.4577    6.6562   -8.7968 H       1  LIG1        0.0655
    105 H           1.1953    2.7748   -3.3422 H       1  LIG1        0.0670
    106 H          -1.3875    2.7364   -1.6718 H       1  LIG1        0.0637
@<TRIPOS>BOND
     1     1    41    1
     2     1    28    1
     3     2    34    2
     4     3    38   ar
     5     4    38   ar
     6     5    41    2
     7     6    48    1
     8     7    50    2
     9     8    53   ar
    10     9    53   ar
    11    10    45    1
    12    10    50   am
    13    11    16    1
    14    11    12    1
    15    11    26    1
    16    11    13    1
    17    12    14    1
    18    13    20    1
    19    13    17    1
    20    13    28    1
    21    14    15    1
    22    14    24    1
    23    14    29    1
    24    15    19    1
    25    15    23    1
    26    16    19    1
    27    17    18    1
    28    17    27    2
    29    18    30    1
    30    18    22    1
    31    20    25    1
    32    21    27    1
    33    21    12    1
    34    22    31    1
    35    22    25    1
    36    22    38    1
    37    23    34    1
    38    23    37    1
    39    23    36    1
    40    24    32    1
    41    30    33    1
    42    31    35    1
    43    32    34    1
    44    33    35    1
    45    33    40    1
    46    33    39    1
    47    41    42    1
    48    42    43    2
    49    43    44    1
    50    44    46   ar
    51    44    45   ar
    52    45    47   ar
    53    46    48   ar
    54    47    49   ar
    55    48    49   ar
    56    50    51    1
    57    51    52    2
    58    52    53    1
    59     6    54    1
    60    10    55    1
    61    12    56    1
    62    15    57    1
    63    16    58    1
    64    16    59    1
    65    18    60    1
    66    19    61    1
    67    19    62    1
    68    20    63    1
    69    20    64    1
    70    21    65    1
    71    21    66    1
    72    24    67    1
    73    24    68    1
    74    25    69    1
    75    25    70    1
    76    26    71    1
    77    26    72    1
    78    26    73    1
    79    27    74    1
    80    28    75    1
    81    28    76    1
    82    29    77    1
    83    29    78    1
    84    29    79    1
    85    30    80    1
    86    30    81    1
    87    31    82    1
    88    31    83    1
    89    32    84    1
    90    32    85    1
    91    35    86    1
    92    35    87    1
    93    36    88    1
    94    36    89    1
    95    36    90    1
    96    37    91    1
    97    37    92    1
    98    37    93    1
    99    39    94    1
   100    39    95    1
   101    39    96    1
   102    40    97    1
   103    40    98    1
   104    40    99    1
   105    42   100    1
   106    43   101    1
   107    46   102    1
   108    47   103    1
   109    49   104    1
   110    51   105    1
   111    52   106    1
@<TRIPOS>MOLECULE
11672244
 106 111 0 0 0
SMALL
GASTEIGER

@<TRIPOS>ATOM
      1 O          -4.8805   -0.0342   -4.8251 O.3     1  LIG1       -0.4607
      2 O          -6.3034    6.5657   -7.1618 O.2     1  LIG1       -0.2968
      3 O          -6.5279   -4.1784   -9.7125 O.co2   1  LIG1       -0.5492
      4 O          -7.6172   -5.0896   -7.9441 O.co2   1  LIG1       -0.5492
      5 O          -4.9406   -1.8476   -3.3940 O.2     1  LIG1       -0.2456
      6 O          -2.7218    3.1506    1.6789 O.3     1  LIG1       -0.5067
      7 O          -1.4337   -0.4481   -3.8655 O.2     1  LIG1       -0.2705
      8 O           2.5825   -3.3998   -4.3810 O.co2   1  LIG1       -0.5452
      9 O           1.2330   -4.3102   -5.9832 O.co2   1  LIG1       -0.5452
     10 N          -0.1959   -0.3209   -1.8831 N.am    1  LIG1       -0.2815
     11 C          -6.7611   -0.0037   -7.3797 C.3     1  LIG1       -0.0160
     12 C          -5.9096    1.0644   -8.1615 C.3     1  LIG1       -0.0256
     13 C          -5.7575   -1.2259   -6.9397 C.3     1  LIG1        0.0318
     14 C          -6.5543    2.5102   -8.3802 C.3     1  LIG1       -0.0243
     15 C          -7.0995    2.9955   -6.9920 C.3     1  LIG1       -0.0235
     16 C          -7.4804    0.6408   -6.1643 C.3     1  LIG1       -0.0461
     17 C          -5.0036   -1.7548   -8.1943 C.2     1  LIG1       -0.0596
     18 C          -4.3866   -3.1630   -8.0762 C.3     1  LIG1       -0.0080
     19 C          -8.1366    1.9924   -6.4465 C.3     1  LIG1       -0.0483
     20 C          -6.5935   -2.3556   -6.2614 C.3     1  LIG1       -0.0392
     21 C          -5.3093    0.4347   -9.4399 C.3     1  LIG1       -0.0306
     22 C          -5.4082   -4.2069   -7.5714 C.3     1  LIG1        0.0167
     23 C          -7.5405    4.4948   -6.8898 C.3     1  LIG1        0.0267
     24 C          -5.4177    3.4905   -8.7922 C.3     1  LIG1       -0.0404
     25 C          -5.9180   -3.7273   -6.1890 C.3     1  LIG1       -0.0408
     26 C          -7.8965   -0.5695   -8.3005 C.3     1  LIG1       -0.0584
     27 C          -4.8255   -0.9735   -9.2790 C.2     1  LIG1       -0.0835
     28 C          -4.5711   -0.8230   -5.9789 C.3     1  LIG1        0.1025
     29 C          -7.6253    2.5359   -9.4983 C.3     1  LIG1       -0.0590
     30 C          -3.5402   -3.6529   -9.2772 C.3     1  LIG1       -0.0405
     31 C          -4.7262   -5.5851   -7.3750 C.3     1  LIG1       -0.0412
     32 C          -5.8360    4.9525   -8.8330 C.3     1  LIG1        0.0069
     33 C          -2.8646   -5.0243   -9.0481 C.3     1  LIG1       -0.0343
     34 C          -6.4996    5.4114   -7.5576 C.2     1  LIG1        0.1392
     35 C          -3.9159   -6.0508   -8.5868 C.3     1  LIG1       -0.0470
     36 C          -8.9156    4.8078   -7.4980 C.3     1  LIG1       -0.0528
     37 C          -7.6004    4.9019   -5.3925 C.3     1  LIG1       -0.0528
     38 C          -6.6340   -4.5104   -8.4979 C.2     1  LIG1        0.0485
     39 C          -2.2440   -5.5012  -10.3758 C.3     1  LIG1       -0.0598
     40 C          -1.7214   -4.9090   -8.0176 C.3     1  LIG1       -0.0598
     41 C          -4.7292   -0.6726   -3.6396 C.2     1  LIG1        0.3320
     42 C          -4.1287    0.2938   -2.6994 C.2     1  LIG1        0.0231
     43 C          -3.2540   -0.1911   -1.8046 C.2     1  LIG1       -0.0460
     44 C          -2.3586    0.6631   -1.0186 C.ar    1  LIG1       -0.0001
     45 C          -0.9522    0.5288   -1.0382 C.ar    1  LIG1        0.0411
     46 C          -2.9534    1.5545   -0.1038 C.ar    1  LIG1       -0.0113
     47 C          -0.1892    1.2595   -0.1091 C.ar    1  LIG1       -0.0364
     48 C          -2.1668    2.2879    0.7795 C.ar    1  LIG1        0.1175
     49 C          -0.7900    2.1433    0.7871 C.ar    1  LIG1       -0.0184
     50 C          -0.5004   -0.7903   -3.1498 C.2     1  LIG1        0.2411
     51 C           0.5454   -1.7428   -3.6128 C.2     1  LIG1        0.0021
     52 C           0.3814   -2.5653   -4.6601 C.2     1  LIG1       -0.0344
     53 C           1.5098   -3.5168   -5.0443 C.2     1  LIG1        0.0647
     54 H          -3.6851    3.1405    1.5507 H       1  LIG1        0.2921
     55 H           0.7477   -0.5104   -1.5777 H       1  LIG1        0.1551
     56 H          -5.0493    1.2706   -7.5093 H       1  LIG1        0.0315
     57 H          -6.2337    2.9260   -6.3118 H       1  LIG1        0.0315
     58 H          -6.7929    0.8207   -5.3423 H       1  LIG1        0.0271
     59 H          -8.2391   -0.0418   -5.7616 H       1  LIG1        0.0271
     60 H          -3.6412   -3.0531   -7.2769 H       1  LIG1        0.0355
     61 H          -8.9869    1.8701   -7.1226 H       1  LIG1        0.0269
     62 H          -8.5598    2.3462   -5.5013 H       1  LIG1        0.0269
     63 H          -7.5360   -2.5184   -6.7871 H       1  LIG1        0.0275
     64 H          -6.8790   -2.0484   -5.2486 H       1  LIG1        0.0275
     65 H          -6.0327    0.4185  -10.2587 H       1  LIG1        0.0310
     66 H          -4.4610    1.0402   -9.7785 H       1  LIG1        0.0310
     67 H          -5.0218    3.2228   -9.7790 H       1  LIG1        0.0275
     68 H          -4.5817    3.3966   -8.0861 H       1  LIG1        0.0275
     69 H          -6.6259   -4.4455   -5.7558 H       1  LIG1        0.0275
     70 H          -5.0835   -3.6842   -5.4781 H       1  LIG1        0.0275
     71 H          -8.4471    0.2091   -8.8206 H       1  LIG1        0.0235
     72 H          -8.6553   -1.1122   -7.7269 H       1  LIG1        0.0235
     73 H          -7.5261   -1.2553   -9.0671 H       1  LIG1        0.0235
     74 H          -4.3033   -1.3668  -10.1466 H       1  LIG1        0.0572
     75 H          -3.9983   -1.7055   -5.6693 H       1  LIG1        0.0706
     76 H          -3.8402   -0.2199   -6.5328 H       1  LIG1        0.0706
     77 H          -8.6009    2.1764   -9.1717 H       1  LIG1        0.0235
     78 H          -7.3316    1.9550  -10.3743 H       1  LIG1        0.0235
     79 H          -7.8042    3.5389   -9.8882 H       1  LIG1        0.0235
     80 H          -2.7556   -2.9141   -9.4928 H       1  LIG1        0.0276
     81 H          -4.1609   -3.7034  -10.1792 H       1  LIG1        0.0276
     82 H          -5.4672   -6.3591   -7.1362 H       1  LIG1        0.0274
     83 H          -4.0602   -5.5455   -6.5034 H       1  LIG1        0.0274
     84 H          -6.5111    5.1658   -9.6663 H       1  LIG1        0.0342
     85 H          -4.9402    5.5655   -8.9893 H       1  LIG1        0.0342
     86 H          -4.6055   -6.2698   -9.4119 H       1  LIG1        0.0271
     87 H          -3.4273   -7.0025   -8.3412 H       1  LIG1        0.0271
     88 H          -8.9383    4.6942   -8.5820 H       1  LIG1        0.0239
     89 H          -9.1950    5.8512   -7.3046 H       1  LIG1        0.0239
     90 H          -9.7029    4.1794   -7.0701 H       1  LIG1        0.0239
     91 H          -6.6381    4.7283   -4.8970 H       1  LIG1        0.0239
     92 H          -8.3707    4.3527   -4.8436 H       1  LIG1        0.0239
     93 H          -7.8332    5.9670   -5.2727 H       1  LIG1        0.0239
     94 H          -3.0054   -5.6056  -11.1567 H       1  LIG1        0.0235
     95 H          -1.7541   -6.4742  -10.2568 H       1  LIG1        0.0235
     96 H          -1.4921   -4.7906  -10.7380 H       1  LIG1        0.0235
     97 H          -2.0682   -4.5854   -7.0324 H       1  LIG1        0.0235
     98 H          -0.9663   -4.1868   -8.3492 H       1  LIG1        0.0235
     99 H          -1.2175   -5.8730   -7.8823 H       1  LIG1        0.0235
    100 H          -4.2579    1.3478   -2.8984 H       1  LIG1        0.0689
    101 H          -3.0679   -1.2622   -1.7362 H       1  LIG1        0.0626
    102 H          -4.0363    1.6389   -0.0703 H       1  LIG1        0.0660
    103 H           0.8942    1.1677   -0.0936 H       1  LIG1        0.0637
    104 H          -0.1831    2.7119    1.4849 H       1  LIG1        0.0655
    105 H           1.4802   -1.7726   -3.0660 H       1  LIG1        0.0670
    106 H          -0.5397   -2.5890   -5.2338 H       1  LIG1        0.0637
@<TRIPOS>BOND
     1     1    41    1
     2     1    28    1
     3     2    34    2
     4     3    38   ar
     5     4    38   ar
     6     5    41    2
     7     6    48    1
     8     7    50    2
     9     8    53   ar
    10     9    53   ar
    11    10    45    1
    12    10    50   am
    13    11    16    1
    14    11    12    1
    15    11    26    1
    16    11    13    1
    17    12    14    1
    18    13    20    1
    19    13    17    1
    20    13    28    1
    21    14    15    1
    22    14    24    1
    23    14    29    1
    24    15    19    1
    25    15    23    1
    26    16    19    1
    27    17    18    1
    28    17    27    2
    29    18    30    1
    30    18    22    1
    31    20    25    1
    32    21    27    1
    33    21    12    1
    34    22    31    1
    35    22    25    1
    36    22    38    1
    37    23    34    1
    38    23    37    1
    39    23    36    1
    40    24    32    1
    41    30    33    1
    42    31    35    1
    43    32    34    1
    44    33    35    1
    45    33    40    1
    46    33    39    1
    47    41    42    1
    48    42    43    2
    49    43    44    1
    50    44    46   ar
    51    44    45   ar
    52    45    47   ar
    53    46    48   ar
    54    47    49   ar
    55    48    49   ar
    56    50    51    1
    57    51    52    2
    58    52    53    1
    59     6    54    1
    60    10    55    1
    61    12    56    1
    62    15    57    1
    63    16    58    1
    64    16    59    1
    65    18    60    1
    66    19    61    1
    67    19    62    1
    68    20    63    1
    69    20    64    1
    70    21    65    1
    71    21    66    1
    72    24    67    1
    73    24    68    1
    74    25    69    1
    75    25    70    1
    76    26    71    1
    77    26    72    1
    78    26    73    1
    79    27    74    1
    80    28    75    1
    81    28    76    1
    82    29    77    1
    83    29    78    1
    84    29    79    1
    85    30    80    1
    86    30    81    1
    87    31    82    1
    88    31    83    1
    89    32    84    1
    90    32    85    1
    91    35    86    1
    92    35    87    1
    93    36    88    1
    94    36    89    1
    95    36    90    1
    96    37    91    1
    97    37    92    1
    98    37    93    1
    99    39    94    1
   100    39    95    1
   101    39    96    1
   102    40    97    1
   103    40    98    1
   104    40    99    1
   105    42   100    1
   106    43   101    1
   107    46   102    1
   108    47   103    1
   109    49   104    1
   110    51   105    1
   111    52   106    1
@<TRIPOS>MOLECULE
11672244
 106 111 0 0 0
SMALL
GASTEIGER

@<TRIPOS>ATOM
      1 O          -5.2731   -0.3013   -4.7459 O.3     1  LIG1       -0.4607
      2 O          -6.2802    6.5352   -7.1486 O.2     1  LIG1       -0.2968
      3 O          -7.4966   -5.2154   -8.1749 O.co2   1  LIG1       -0.5492
      4 O          -6.4051   -4.1314   -9.8429 O.co2   1  LIG1       -0.5492
      5 O          -4.5759   -2.0677   -3.4357 O.2     1  LIG1       -0.2456
      6 O          -6.5923    3.6175    1.0723 O.3     1  LIG1       -0.5067
      7 O          -6.4871   -3.9973    1.9611 O.2     1  LIG1       -0.2705
      8 O          -2.4457   -3.5657    4.9586 O.co2   1  LIG1       -0.5452
      9 O          -2.7737   -1.4424    4.1842 O.co2   1  LIG1       -0.5452
     10 N          -6.6977   -1.9347    1.0915 N.am    1  LIG1       -0.2815
     11 C          -6.8032   -0.0130   -7.4849 C.3     1  LIG1       -0.0160
     12 C          -5.9254    1.0628   -8.2297 C.3     1  LIG1       -0.0256
     13 C          -5.8129   -1.2508   -7.0218 C.3     1  LIG1        0.0318
     14 C          -6.5596    2.5143   -8.4562 C.3     1  LIG1       -0.0243
     15 C          -7.1488    2.9875   -7.0819 C.3     1  LIG1       -0.0235
     16 C          -7.5570    0.6361   -6.2918 C.3     1  LIG1       -0.0461
     17 C          -4.9734   -1.7424   -8.2336 C.2     1  LIG1       -0.0596
     18 C          -4.3455   -3.1488   -8.1150 C.3     1  LIG1       -0.0080
     19 C          -8.2125    1.9839   -6.5900 C.3     1  LIG1       -0.0483
     20 C          -6.6818   -2.4090   -6.4355 C.3     1  LIG1       -0.0392
     21 C          -5.2850    0.4437   -9.4908 C.3     1  LIG1       -0.0306
     22 C          -5.3688   -4.2171   -7.6658 C.3     1  LIG1        0.0167
     23 C          -7.5756    4.4889   -6.9651 C.3     1  LIG1        0.0267
     24 C          -5.4083    3.4956   -8.8235 C.3     1  LIG1       -0.0404
     25 C          -5.9735   -3.7598   -6.3169 C.3     1  LIG1       -0.0408
     26 C          -7.9075   -0.5697   -8.4432 C.3     1  LIG1       -0.0584
     27 C          -4.7676   -0.9492   -9.3061 C.2     1  LIG1       -0.0835
     28 C          -4.7256   -0.8531   -5.9494 C.3     1  LIG1        0.1025
     29 C          -7.5932    2.5522   -9.6077 C.3     1  LIG1       -0.0590
     30 C          -3.4599   -3.6166   -9.3001 C.3     1  LIG1       -0.0405
     31 C          -4.6615   -5.5763   -7.4382 C.3     1  LIG1       -0.0412
     32 C          -5.8213    4.9594   -8.8567 C.3     1  LIG1        0.0069
     33 C          -2.7833   -4.9909   -9.0826 C.3     1  LIG1       -0.0343
     34 C          -6.5020    5.4011   -7.5848 C.2     1  LIG1        0.1392
     35 C          -3.8255   -6.0327   -8.6349 C.3     1  LIG1       -0.0470
     36 C          -8.9282    4.8263   -7.6074 C.3     1  LIG1       -0.0528
     37 C          -7.6733    4.8702   -5.4625 C.3     1  LIG1       -0.0528
     38 C          -6.5366   -4.5440   -8.6567 C.2     1  LIG1        0.0485
     39 C          -2.1563   -5.4534  -10.4128 C.3     1  LIG1       -0.0598
     40 C          -1.6463   -4.8790   -8.0462 C.3     1  LIG1       -0.0598
     41 C          -5.1499   -1.0069   -3.6020 C.2     1  LIG1        0.3320
     42 C          -5.8229   -0.2164   -2.5481 C.2     1  LIG1        0.0231
     43 C          -5.7338   -0.6040   -1.2691 C.2     1  LIG1       -0.0460
     44 C          -6.2688    0.1443   -0.1143 C.ar    1  LIG1       -0.0001
     45 C          -6.6098   -0.5313    1.0754 C.ar    1  LIG1        0.0411
     46 C          -6.2563    1.5505   -0.1080 C.ar    1  LIG1       -0.0113
     47 C          -6.9476    0.1915    2.2292 C.ar    1  LIG1       -0.0364
     48 C          -6.6039    2.2531    1.0451 C.ar    1  LIG1        0.1175
     49 C          -6.9513    1.5853    2.2102 C.ar    1  LIG1       -0.0184
     50 C          -6.1433   -2.8169    1.9834 C.2     1  LIG1        0.2411
     51 C          -5.0230   -2.3230    2.8238 C.2     1  LIG1        0.0021
     52 C          -4.2797   -3.1628    3.5575 C.2     1  LIG1       -0.0344
     53 C          -3.0479   -2.6695    4.3037 C.2     1  LIG1        0.0647
     54 H          -6.1617    3.9337    0.2614 H       1  LIG1        0.2921
     55 H          -7.0410   -2.4021    0.2619 H       1  LIG1        0.1551
     56 H          -5.0865    1.2631   -7.5493 H       1  LIG1        0.0315
     57 H          -6.3060    2.9008   -6.3749 H       1  LIG1        0.0315
     58 H          -6.8822    0.8506   -5.4693 H       1  LIG1        0.0271
     59 H          -8.3110   -0.0510   -5.8899 H       1  LIG1        0.0271
     60 H          -3.6280   -3.0446   -7.2895 H       1  LIG1        0.0355
     61 H          -9.0353    1.8661   -7.2993 H       1  LIG1        0.0269
     62 H          -8.6706    2.3303   -5.6583 H       1  LIG1        0.0269
     63 H          -7.5656   -2.5894   -7.0499 H       1  LIG1        0.0275
     64 H          -7.0684   -2.1275   -5.4490 H       1  LIG1        0.0275
     65 H          -5.9925    0.4051  -10.3232 H       1  LIG1        0.0310
     66 H          -4.4451    1.0671   -9.8166 H       1  LIG1        0.0310
     67 H          -4.9862    3.2395   -9.8024 H       1  LIG1        0.0275
     68 H          -4.5928    3.3894   -8.0956 H       1  LIG1        0.0275
     69 H          -6.6875   -4.4983   -5.9304 H       1  LIG1        0.0275
     70 H          -5.1863   -3.6963   -5.5561 H       1  LIG1        0.0275
     71 H          -8.4309    0.2106   -8.9879 H       1  LIG1        0.0235
     72 H          -8.6909   -1.1018   -7.8920 H       1  LIG1        0.0235
     73 H          -7.5126   -1.2632   -9.1907 H       1  LIG1        0.0235
     74 H          -4.2073   -1.3260  -10.1563 H       1  LIG1        0.0572
     75 H          -4.0735   -1.6984   -5.7075 H       1  LIG1        0.0706
     76 H          -4.0492   -0.0908   -6.3506 H       1  LIG1        0.0706
     77 H          -8.5767    2.1814   -9.3204 H       1  LIG1        0.0235
     78 H          -7.2646    1.9867  -10.4817 H       1  LIG1        0.0235
     79 H          -7.7663    3.5608   -9.9856 H       1  LIG1        0.0235
     80 H          -2.6737   -2.8704   -9.4804 H       1  LIG1        0.0276
     81 H          -4.0530   -3.6523  -10.2210 H       1  LIG1        0.0276
     82 H          -5.3883   -6.3645   -7.2018 H       1  LIG1        0.0274
     83 H          -4.0108   -5.5104   -6.5566 H       1  LIG1        0.0274
     84 H          -6.4825    5.1857   -9.6975 H       1  LIG1        0.0342
     85 H          -4.9210    5.5710   -8.9908 H       1  LIG1        0.0342
     86 H          -4.4985   -6.2659   -9.4697 H       1  LIG1        0.0271
     87 H          -3.3265   -6.9765   -8.3790 H       1  LIG1        0.0271
     88 H          -8.9222    4.7203   -8.6919 H       1  LIG1        0.0239
     89 H          -9.1986    5.8716   -7.4118 H       1  LIG1        0.0239
     90 H          -9.7348    4.2045   -7.2058 H       1  LIG1        0.0239
     91 H          -6.7255    4.6819   -4.9443 H       1  LIG1        0.0239
     92 H          -8.4606    4.3166   -4.9431 H       1  LIG1        0.0239
     93 H          -7.9021    5.9350   -5.3306 H       1  LIG1        0.0239
     94 H          -2.9158   -5.5585  -11.1954 H       1  LIG1        0.0235
     95 H          -1.6596   -6.4237  -10.3000 H       1  LIG1        0.0235
     96 H          -1.4097   -4.7346  -10.7693 H       1  LIG1        0.0235
     97 H          -2.0009   -4.5565   -7.0634 H       1  LIG1        0.0235
     98 H          -0.8889   -4.1569   -8.3721 H       1  LIG1        0.0235
     99 H          -1.1437   -5.8434   -7.9104 H       1  LIG1        0.0235
    100 H          -6.3450    0.6780   -2.8608 H       1  LIG1        0.0689
    101 H          -5.1871   -1.5161   -1.0238 H       1  LIG1        0.0626
    102 H          -5.9417    2.0961   -0.9913 H       1  LIG1        0.0660
    103 H          -7.2317   -0.3265    3.1426 H       1  LIG1        0.0637
    104 H          -7.2110    2.1423    3.1053 H       1  LIG1        0.0655
    105 H          -4.7350   -1.2804    2.7605 H       1  LIG1        0.0670
    106 H          -4.5033   -4.2241    3.6060 H       1  LIG1        0.0637
@<TRIPOS>BOND
     1     1    41    1
     2     1    28    1
     3     2    34    2
     4     3    38   ar
     5     4    38   ar
     6     5    41    2
     7     6    48    1
     8     7    50    2
     9     8    53   ar
    10     9    53   ar
    11    10    45    1
    12    10    50   am
    13    11    16    1
    14    11    12    1
    15    11    26    1
    16    11    13    1
    17    12    14    1
    18    13    20    1
    19    13    17    1
    20    13    28    1
    21    14    15    1
    22    14    24    1
    23    14    29    1
    24    15    19    1
    25    15    23    1
    26    16    19    1
    27    17    18    1
    28    17    27    2
    29    18    30    1
    30    18    22    1
    31    20    25    1
    32    21    27    1
    33    21    12    1
    34    22    31    1
    35    22    25    1
    36    22    38    1
    37    23    34    1
    38    23    37    1
    39    23    36    1
    40    24    32    1
    41    30    33    1
    42    31    35    1
    43    32    34    1
    44    33    35    1
    45    33    40    1
    46    33    39    1
    47    41    42    1
    48    42    43    2
    49    43    44    1
    50    44    46   ar
    51    44    45   ar
    52    45    47   ar
    53    46    48   ar
    54    47    49   ar
    55    48    49   ar
    56    50    51    1
    57    51    52    2
    58    52    53    1
    59     6    54    1
    60    10    55    1
    61    12    56    1
    62    15    57    1
    63    16    58    1
    64    16    59    1
    65    18    60    1
    66    19    61    1
    67    19    62    1
    68    20    63    1
    69    20    64    1
    70    21    65    1
    71    21    66    1
    72    24    67    1
    73    24    68    1
    74    25    69    1
    75    25    70    1
    76    26    71    1
    77    26    72    1
    78    26    73    1
    79    27    74    1
    80    28    75    1
    81    28    76    1
    82    29    77    1
    83    29    78    1
    84    29    79    1
    85    30    80    1
    86    30    81    1
    87    31    82    1
    88    31    83    1
    89    32    84    1
    90    32    85    1
    91    35    86    1
    92    35    87    1
    93    36    88    1
    94    36    89    1
    95    36    90    1
    96    37    91    1
    97    37    92    1
    98    37    93    1
    99    39    94    1
   100    39    95    1
   101    39    96    1
   102    40    97    1
   103    40    98    1
   104    40    99    1
   105    42   100    1
   106    43   101    1
   107    46   102    1
   108    47   103    1
   109    49   104    1
   110    51   105    1
   111    52   106    1
@<TRIPOS>MOLECULE
11672244
 106 111 0 0 0
SMALL
GASTEIGER

@<TRIPOS>ATOM
      1 O          -3.7313   -1.5445   -5.3503 O.3     1  LIG1       -0.4607
      2 O          -6.3317    6.5817   -7.2506 O.2     1  LIG1       -0.2968
      3 O          -6.2982   -4.0476   -9.8959 O.co2   1  LIG1       -0.5492
      4 O          -7.5670   -4.8420   -8.1939 O.co2   1  LIG1       -0.5492
      5 O          -1.8938   -0.5484   -6.3533 O.2     1  LIG1       -0.2456
      6 O           4.0075   -4.0930   -4.0986 O.3     1  LIG1       -0.5067
      7 O          -1.3414   -5.3168   -0.8163 O.2     1  LIG1       -0.2705
      8 O          -6.1796   -5.8018   -1.6900 O.co2   1  LIG1       -0.5452
      9 O          -6.2510   -4.2854    0.0229 O.co2   1  LIG1       -0.5452
     10 N          -1.4320   -4.8560   -3.0964 N.am    1  LIG1       -0.2815
     11 C          -6.7181    0.0247   -7.4605 C.3     1  LIG1       -0.0160
     12 C          -5.9002    1.1113   -8.2588 C.3     1  LIG1       -0.0256
     13 C          -5.6717   -1.1653   -6.9828 C.3     1  LIG1        0.0318
     14 C          -6.5823    2.5369   -8.4871 C.3     1  LIG1       -0.0243
     15 C          -7.1177    3.0207   -7.0931 C.3     1  LIG1       -0.0235
     16 C          -7.4329    0.6710   -6.2395 C.3     1  LIG1       -0.0461
     17 C          -4.8602   -1.6653   -8.2082 C.2     1  LIG1       -0.0596
     18 C          -4.2633   -3.0870   -8.1185 C.3     1  LIG1       -0.0080
     19 C          -8.1277    2.0008   -6.5284 C.3     1  LIG1       -0.0483
     20 C          -6.4874   -2.3171   -6.3094 C.3     1  LIG1       -0.0392
     21 C          -5.2673    0.4813   -9.5157 C.3     1  LIG1       -0.0306
     22 C          -5.3222   -4.1263   -7.6890 C.3     1  LIG1        0.0167
     23 C          -7.5780    4.5128   -6.9843 C.3     1  LIG1        0.0267
     24 C          -5.4749    3.5394   -8.9266 C.3     1  LIG1       -0.0404
     25 C          -5.8433   -3.7009   -6.2975 C.3     1  LIG1       -0.0408
     26 C          -7.8344   -0.5846   -8.3696 C.3     1  LIG1       -0.0584
     27 C          -4.7069   -0.8926   -9.3038 C.2     1  LIG1       -0.0835
     28 C          -4.6410   -0.5931   -5.9276 C.3     1  LIG1        0.1025
     29 C          -7.6659    2.5206   -9.5905 C.3     1  LIG1       -0.0590
     30 C          -3.3896   -3.5570   -9.3116 C.3     1  LIG1       -0.0405
     31 C          -4.6943   -5.5345   -7.5358 C.3     1  LIG1       -0.0412
     32 C          -5.9229    4.9925   -8.9596 C.3     1  LIG1        0.0069
     33 C          -2.7718   -4.9642   -9.1301 C.3     1  LIG1       -0.0343
     34 C          -6.5509    5.4375   -7.6617 C.2     1  LIG1        0.1392
     35 C          -3.8643   -5.9768   -8.7404 C.3     1  LIG1       -0.0470
     36 C          -8.9602    4.8064   -7.5829 C.3     1  LIG1       -0.0528
     37 C          -7.6304    4.9183   -5.4862 C.3     1  LIG1       -0.0528
     38 C          -6.5121   -4.3465   -8.6854 C.2     1  LIG1        0.0485
     39 C          -2.1369   -5.4073  -10.4626 C.3     1  LIG1       -0.0598
     40 C          -1.6550   -4.9368   -8.0679 C.3     1  LIG1       -0.0598
     41 C          -2.4154   -1.3471   -5.5923 C.2     1  LIG1        0.3320
     42 C          -1.6638   -2.2549   -4.7072 C.2     1  LIG1        0.0231
     43 C          -0.5516   -2.8507   -5.1605 C.2     1  LIG1       -0.0460
     44 C           0.3442   -3.7061   -4.3543 C.ar    1  LIG1       -0.0001
     45 C          -0.0597   -4.6114   -3.3458 C.ar    1  LIG1        0.0411
     46 C           1.7220   -3.5457   -4.6113 C.ar    1  LIG1       -0.0113
     47 C           0.9211   -5.3024   -2.6144 C.ar    1  LIG1       -0.0364
     48 C           2.6710   -4.2479   -3.8725 C.ar    1  LIG1        0.1175
     49 C           2.2798   -5.1230   -2.8754 C.ar    1  LIG1       -0.0184
     50 C          -1.9641   -5.1917   -1.8653 C.2     1  LIG1        0.2411
     51 C          -3.4413   -5.2960   -1.9131 C.2     1  LIG1        0.0021
     52 C          -4.1728   -4.8504   -0.8819 C.2     1  LIG1       -0.0344
     53 C          -5.6863   -4.9941   -0.8601 C.2     1  LIG1        0.0647
     54 H           4.1216   -3.4291   -4.7976 H       1  LIG1        0.2921
     55 H          -2.0956   -4.5897   -3.8139 H       1  LIG1        0.1551
     56 H          -5.0481    1.3636   -7.6184 H       1  LIG1        0.0315
     57 H          -6.2406    2.9691   -6.4256 H       1  LIG1        0.0315
     58 H          -6.7255    0.8836   -5.4363 H       1  LIG1        0.0271
     59 H          -8.1636   -0.0261   -5.8110 H       1  LIG1        0.0271
     60 H          -3.5441   -3.0270   -7.2960 H       1  LIG1        0.0355
     61 H          -8.9808    1.8505   -7.1950 H       1  LIG1        0.0269
     62 H          -8.5497    2.3534   -5.5824 H       1  LIG1        0.0269
     63 H          -7.4534   -2.4514   -6.7977 H       1  LIG1        0.0275
     64 H          -6.7321   -2.0383   -5.2761 H       1  LIG1        0.0275
     65 H          -5.9918    0.4036  -10.3312 H       1  LIG1        0.0310
     66 H          -4.4526    1.1192   -9.8755 H       1  LIG1        0.0310
     67 H          -5.0961    3.2769   -9.9215 H       1  LIG1        0.0275
     68 H          -4.6213    3.4645   -8.2394 H       1  LIG1        0.0275
     69 H          -6.5745   -4.4242   -5.9129 H       1  LIG1        0.0275
     70 H          -5.0232   -3.7113   -5.5688 H       1  LIG1        0.0275
     71 H          -8.3835    0.1677   -8.9286 H       1  LIG1        0.0235
     72 H          -8.5971   -1.1105   -7.7857 H       1  LIG1        0.0235
     73 H          -7.4429   -1.2948   -9.1028 H       1  LIG1        0.0235
     74 H          -4.1778   -1.2849  -10.1676 H       1  LIG1        0.0572
     75 H          -4.0827    0.2549   -6.3299 H       1  LIG1        0.0706
     76 H          -5.1760   -0.2120   -5.0560 H       1  LIG1        0.0706
     77 H          -8.6286    2.1427   -9.2462 H       1  LIG1        0.0235
     78 H          -7.3652    1.9296  -10.4582 H       1  LIG1        0.0235
     79 H          -7.8728    3.5134   -9.9930 H       1  LIG1        0.0235
     80 H          -2.5754   -2.8351   -9.4655 H       1  LIG1        0.0276
     81 H          -3.9740   -3.5454  -10.2384 H       1  LIG1        0.0276
     82 H          -5.4708   -6.2893   -7.3533 H       1  LIG1        0.0274
     83 H          -4.0550   -5.5583   -6.6437 H       1  LIG1        0.0274
     84 H          -6.6299    5.1908   -9.7696 H       1  LIG1        0.0342
     85 H          -5.0447    5.6224   -9.1459 H       1  LIG1        0.0342
     86 H          -4.5347   -6.1475   -9.5921 H       1  LIG1        0.0271
     87 H          -3.4103   -6.9512   -8.5173 H       1  LIG1        0.0271
     88 H          -8.9873    4.6903   -8.6666 H       1  LIG1        0.0239
     89 H          -9.2521    5.8461   -7.3879 H       1  LIG1        0.0239
     90 H          -9.7354    4.1670   -7.1491 H       1  LIG1        0.0239
     91 H          -6.6636    4.7506   -4.9970 H       1  LIG1        0.0239
     92 H          -8.3929    4.3636   -4.9322 H       1  LIG1        0.0239
     93 H          -7.8691    5.9818   -5.3640 H       1  LIG1        0.0239
     94 H          -2.8845   -5.4577  -11.2621 H       1  LIG1        0.0235
     95 H          -1.6810   -6.4000  -10.3725 H       1  LIG1        0.0235
     96 H          -1.3558   -4.7077  -10.7806 H       1  LIG1        0.0235
     97 H          -2.0260   -4.6574   -7.0787 H       1  LIG1        0.0235
     98 H          -0.8720   -4.2200   -8.3403 H       1  LIG1        0.0235
     99 H          -1.1817   -5.9204   -7.9693 H       1  LIG1        0.0235
    100 H          -2.0525   -2.3647   -3.7030 H       1  LIG1        0.0689
    101 H          -0.2265   -2.6551   -6.1817 H       1  LIG1        0.0626
    102 H           2.0461   -2.8464   -5.3779 H       1  LIG1        0.0660
    103 H           0.6392   -6.0196   -1.8472 H       1  LIG1        0.0637
    104 H           3.0190   -5.6726   -2.3011 H       1  LIG1        0.0655
    105 H          -3.9058   -5.7547   -2.7794 H       1  LIG1        0.0670
    106 H          -3.7109   -4.3757   -0.0222 H       1  LIG1        0.0637
@<TRIPOS>BOND
     1     1    41    1
     2     1    28    1
     3     2    34    2
     4     3    38   ar
     5     4    38   ar
     6     5    41    2
     7     6    48    1
     8     7    50    2
     9     8    53   ar
    10     9    53   ar
    11    10    45    1
    12    10    50   am
    13    11    16    1
    14    11    12    1
    15    11    26    1
    16    11    13    1
    17    12    14    1
    18    13    20    1
    19    13    17    1
    20    13    28    1
    21    14    15    1
    22    14    24    1
    23    14    29    1
    24    15    19    1
    25    15    23    1
    26    16    19    1
    27    17    18    1
    28    17    27    2
    29    18    30    1
    30    18    22    1
    31    20    25    1
    32    21    27    1
    33    21    12    1
    34    22    31    1
    35    22    25    1
    36    22    38    1
    37    23    34    1
    38    23    37    1
    39    23    36    1
    40    24    32    1
    41    30    33    1
    42    31    35    1
    43    32    34    1
    44    33    35    1
    45    33    40    1
    46    33    39    1
    47    41    42    1
    48    42    43    2
    49    43    44    1
    50    44    46   ar
    51    44    45   ar
    52    45    47   ar
    53    46    48   ar
    54    47    49   ar
    55    48    49   ar
    56    50    51    1
    57    51    52    2
    58    52    53    1
    59     6    54    1
    60    10    55    1
    61    12    56    1
    62    15    57    1
    63    16    58    1
    64    16    59    1
    65    18    60    1
    66    19    61    1
    67    19    62    1
    68    20    63    1
    69    20    64    1
    70    21    65    1
    71    21    66    1
    72    24    67    1
    73    24    68    1
    74    25    69    1
    75    25    70    1
    76    26    71    1
    77    26    72    1
    78    26    73    1
    79    27    74    1
    80    28    75    1
    81    28    76    1
    82    29    77    1
    83    29    78    1
    84    29    79    1
    85    30    80    1
    86    30    81    1
    87    31    82    1
    88    31    83    1
    89    32    84    1
    90    32    85    1
    91    35    86    1
    92    35    87    1
    93    36    88    1
    94    36    89    1
    95    36    90    1
    96    37    91    1
    97    37    92    1
    98    37    93    1
    99    39    94    1
   100    39    95    1
   101    39    96    1
   102    40    97    1
   103    40    98    1
   104    40    99    1
   105    42   100    1
   106    43   101    1
   107    46   102    1
   108    47   103    1
   109    49   104    1
   110    51   105    1
   111    52   106    1
@<TRIPOS>MOLECULE
11672244
 106 111 0 0 0
SMALL
GASTEIGER

@<TRIPOS>ATOM
      1 O          -3.7139   -1.5290   -5.4038 O.3     1  LIG1       -0.4607
      2 O          -6.3557    6.5975   -7.2726 O.2     1  LIG1       -0.2968
      3 O          -6.3679   -4.0893   -9.8247 O.co2   1  LIG1       -0.5492
      4 O          -7.5662   -4.8835   -8.0715 O.co2   1  LIG1       -0.5492
      5 O          -1.8407   -0.4283   -6.2120 O.2     1  LIG1       -0.2456
      6 O           3.8092   -3.7020   -2.8691 O.3     1  LIG1       -0.5067
      7 O          -3.0804   -6.5448   -3.5009 O.2     1  LIG1       -0.2705
      8 O          -2.4432   -3.0157    0.0282 O.co2   1  LIG1       -0.5452
      9 O          -4.7112   -3.2743    0.0933 O.co2   1  LIG1       -0.5452
     10 N          -1.3004   -5.3827   -4.2578 N.am    1  LIG1       -0.2815
     11 C          -6.7242    0.0340   -7.4567 C.3     1  LIG1       -0.0160
     12 C          -5.9166    1.1173   -8.2688 C.3     1  LIG1       -0.0256
     13 C          -5.6696   -1.1466   -6.9864 C.3     1  LIG1        0.0318
     14 C          -6.5976    2.5431   -8.4901 C.3     1  LIG1       -0.0243
     15 C          -7.1206    3.0283   -7.0919 C.3     1  LIG1       -0.0235
     16 C          -7.4283    0.6810   -6.2305 C.3     1  LIG1       -0.0461
     17 C          -4.8830   -1.6616   -8.2217 C.2     1  LIG1       -0.0596
     18 C          -4.2800   -3.0800   -8.1225 C.3     1  LIG1       -0.0080
     19 C          -8.1255    2.0097   -6.5167 C.3     1  LIG1       -0.0483
     20 C          -6.4687   -2.2914   -6.2810 C.3     1  LIG1       -0.0392
     21 C          -5.2991    0.4814   -9.5314 C.3     1  LIG1       -0.0306
     22 C          -5.3202   -4.1203   -7.6487 C.3     1  LIG1        0.0167
     23 C          -7.5805    4.5201   -6.9809 C.3     1  LIG1        0.0267
     24 C          -5.4914    3.5438   -8.9363 C.3     1  LIG1       -0.0404
     25 C          -5.8173   -3.6724   -6.2552 C.3     1  LIG1       -0.0408
     26 C          -7.8490   -0.5828   -8.3504 C.3     1  LIG1       -0.0584
     27 C          -4.7429   -0.8959   -9.3240 C.2     1  LIG1       -0.0835
     28 C          -4.6103   -0.5615   -5.9670 C.3     1  LIG1        0.1025
     29 C          -7.6890    2.5275   -9.5852 C.3     1  LIG1       -0.0590
     30 C          -3.4317   -3.5647   -9.3275 C.3     1  LIG1       -0.0405
     31 C          -4.6723   -5.5184   -7.4815 C.3     1  LIG1       -0.0412
     32 C          -5.9377    4.9972   -8.9684 C.3     1  LIG1        0.0069
     33 C          -2.7923   -4.9600   -9.1300 C.3     1  LIG1       -0.0343
     34 C          -6.5636    5.4466   -7.6709 C.2     1  LIG1        0.1392
     35 C          -3.8657   -5.9754   -8.6965 C.3     1  LIG1       -0.0470
     36 C          -8.9697    4.8110   -7.5650 C.3     1  LIG1       -0.0528
     37 C          -7.6173    4.9277   -5.4828 C.3     1  LIG1       -0.0528
     38 C          -6.5354   -4.3751   -8.6045 C.2     1  LIG1        0.0485
     39 C          -2.1808   -5.4239  -10.4664 C.3     1  LIG1       -0.0598
     40 C          -1.6529   -4.8969   -8.0926 C.3     1  LIG1       -0.0598
     41 C          -2.3881   -1.3096   -5.5659 C.2     1  LIG1        0.3320
     42 C          -1.6833   -2.3371   -4.7779 C.2     1  LIG1        0.0231
     43 C          -0.3978   -2.6239   -5.0225 C.2     1  LIG1       -0.0460
     44 C           0.3995   -3.6011   -4.2603 C.ar    1  LIG1       -0.0001
     45 C          -0.0190   -4.9024   -3.9146 C.ar    1  LIG1        0.0411
     46 C           1.7019   -3.2048   -3.9102 C.ar    1  LIG1       -0.0113
     47 C           0.8573   -5.7836   -3.2646 C.ar    1  LIG1       -0.0364
     48 C           2.5506   -4.0815   -3.2361 C.ar    1  LIG1        0.1175
     49 C           2.1419   -5.3688   -2.9193 C.ar    1  LIG1       -0.0184
     50 C          -2.2805   -5.6305   -3.3178 C.2     1  LIG1        0.2411
     51 C          -2.3359   -4.7341   -2.1371 C.2     1  LIG1        0.0021
     52 C          -3.4999   -4.4540   -1.5321 C.2     1  LIG1       -0.0344
     53 C          -3.5508   -3.4873   -0.3564 C.2     1  LIG1        0.0647
     54 H           3.8701   -2.7382   -2.9767 H       1  LIG1        0.2921
     55 H          -1.3041   -6.1698   -4.8965 H       1  LIG1        0.1551
     56 H          -5.0569    1.3717   -7.6400 H       1  LIG1        0.0315
     57 H          -6.2376    2.9774   -6.4320 H       1  LIG1        0.0315
     58 H          -6.7152    0.8920   -5.4318 H       1  LIG1        0.0271
     59 H          -8.1566   -0.0151   -5.7963 H       1  LIG1        0.0271
     60 H          -3.5410   -3.0006   -7.3194 H       1  LIG1        0.0355
     61 H          -8.9835    1.8577   -7.1768 H       1  LIG1        0.0269
     62 H          -8.5406    2.3640   -5.5683 H       1  LIG1        0.0269
     63 H          -7.4417   -2.4376   -6.7525 H       1  LIG1        0.0275
     64 H          -6.6978   -1.9964   -5.2487 H       1  LIG1        0.0275
     65 H          -6.0322    0.4057  -10.3391 H       1  LIG1        0.0310
     66 H          -4.4850    1.1151   -9.9003 H       1  LIG1        0.0310
     67 H          -5.1172    3.2795   -9.9325 H       1  LIG1        0.0275
     68 H          -4.6344    3.4691   -8.2531 H       1  LIG1        0.0275
     69 H          -6.5375   -4.3915   -5.8432 H       1  LIG1        0.0275
     70 H          -4.9844   -3.6685   -5.5417 H       1  LIG1        0.0275
     71 H          -8.4109    0.1673   -8.9001 H       1  LIG1        0.0235
     72 H          -8.5990   -1.1156   -7.7566 H       1  LIG1        0.0235
     73 H          -7.4640   -1.2897   -9.0903 H       1  LIG1        0.0235
     74 H          -4.2244   -1.2936  -10.1915 H       1  LIG1        0.0572
     75 H          -4.0427    0.2605   -6.4076 H       1  LIG1        0.0706
     76 H          -5.1167   -0.1514   -5.0918 H       1  LIG1        0.0706
     77 H          -8.6466    2.1414   -9.2361 H       1  LIG1        0.0235
     78 H          -7.3911    1.9437  -10.4587 H       1  LIG1        0.0235
     79 H          -7.9039    3.5216   -9.9799 H       1  LIG1        0.0235
     80 H          -2.6291   -2.8384   -9.5171 H       1  LIG1        0.0276
     81 H          -4.0408   -3.5790  -10.2382 H       1  LIG1        0.0276
     82 H          -5.4351   -6.2785   -7.2657 H       1  LIG1        0.0274
     83 H          -4.0118   -5.5168   -6.6046 H       1  LIG1        0.0274
     84 H          -6.6458    5.1947   -9.7777 H       1  LIG1        0.0342
     85 H          -5.0589    5.6257   -9.1570 H       1  LIG1        0.0342
     86 H          -4.5538   -6.1675   -9.5294 H       1  LIG1        0.0271
     87 H          -3.3973   -6.9413   -8.4664 H       1  LIG1        0.0271
     88 H          -9.0076    4.6953   -8.6484 H       1  LIG1        0.0239
     89 H          -9.2618    5.8500   -7.3667 H       1  LIG1        0.0239
     90 H          -9.7391    4.1699   -7.1236 H       1  LIG1        0.0239
     91 H          -6.6454    4.7609   -5.0035 H       1  LIG1        0.0239
     92 H          -8.3738    4.3731   -4.9201 H       1  LIG1        0.0239
     93 H          -7.8554    5.9910   -5.3591 H       1  LIG1        0.0239
     94 H          -2.9440   -5.4968  -11.2492 H       1  LIG1        0.0235
     95 H          -1.7136   -6.4102  -10.3662 H       1  LIG1        0.0235
     96 H          -1.4131   -4.7236  -10.8143 H       1  LIG1        0.0235
     97 H          -2.0021   -4.5855   -7.1053 H       1  LIG1        0.0235
     98 H          -0.8774   -4.1874   -8.4033 H       1  LIG1        0.0235
     99 H          -1.1755   -5.8763   -7.9732 H       1  LIG1        0.0235
    100 H          -2.2653   -2.8124   -4.0011 H       1  LIG1        0.0689
    101 H           0.1301   -2.0908   -5.8104 H       1  LIG1        0.0626
    102 H           2.0410   -2.2039   -4.1629 H       1  LIG1        0.0660
    103 H           0.5324   -6.7880   -3.0044 H       1  LIG1        0.0637
    104 H           2.8113   -6.0418   -2.3931 H       1  LIG1        0.0655
    105 H          -1.4195   -4.2733   -1.7892 H       1  LIG1        0.0670
    106 H          -4.4356   -4.8796   -1.8818 H       1  LIG1        0.0637
@<TRIPOS>BOND
     1     1    41    1
     2     1    28    1
     3     2    34    2
     4     3    38   ar
     5     4    38   ar
     6     5    41    2
     7     6    48    1
     8     7    50    2
     9     8    53   ar
    10     9    53   ar
    11    10    45    1
    12    10    50   am
    13    11    16    1
    14    11    12    1
    15    11    26    1
    16    11    13    1
    17    12    14    1
    18    13    20    1
    19    13    17    1
    20    13    28    1
    21    14    15    1
    22    14    24    1
    23    14    29    1
    24    15    19    1
    25    15    23    1
    26    16    19    1
    27    17    18    1
    28    17    27    2
    29    18    30    1
    30    18    22    1
    31    20    25    1
    32    21    27    1
    33    21    12    1
    34    22    31    1
    35    22    25    1
    36    22    38    1
    37    23    34    1
    38    23    37    1
    39    23    36    1
    40    24    32    1
    41    30    33    1
    42    31    35    1
    43    32    34    1
    44    33    35    1
    45    33    40    1
    46    33    39    1
    47    41    42    1
    48    42    43    2
    49    43    44    1
    50    44    46   ar
    51    44    45   ar
    52    45    47   ar
    53    46    48   ar
    54    47    49   ar
    55    48    49   ar
    56    50    51    1
    57    51    52    2
    58    52    53    1
    59     6    54    1
    60    10    55    1
    61    12    56    1
    62    15    57    1
    63    16    58    1
    64    16    59    1
    65    18    60    1
    66    19    61    1
    67    19    62    1
    68    20    63    1
    69    20    64    1
    70    21    65    1
    71    21    66    1
    72    24    67    1
    73    24    68    1
    74    25    69    1
    75    25    70    1
    76    26    71    1
    77    26    72    1
    78    26    73    1
    79    27    74    1
    80    28    75    1
    81    28    76    1
    82    29    77    1
    83    29    78    1
    84    29    79    1
    85    30    80    1
    86    30    81    1
    87    31    82    1
    88    31    83    1
    89    32    84    1
    90    32    85    1
    91    35    86    1
    92    35    87    1
    93    36    88    1
    94    36    89    1
    95    36    90    1
    96    37    91    1
    97    37    92    1
    98    37    93    1
    99    39    94    1
   100    39    95    1
   101    39    96    1
   102    40    97    1
   103    40    98    1
   104    40    99    1
   105    42   100    1
   106    43   101    1
   107    46   102    1
   108    47   103    1
   109    49   104    1
   110    51   105    1
   111    52   106    1
@<TRIPOS>MOLECULE
11672244
 106 111 0 0 0
SMALL
GASTEIGER

@<TRIPOS>ATOM
      1 O          -3.8466    0.2514   -6.3738 O.3     1  LIG1       -0.4607
      2 O          -6.4767    6.6016   -7.4905 O.2     1  LIG1       -0.2968
      3 O          -6.5237   -4.3040   -9.7277 O.co2   1  LIG1       -0.5492
      4 O          -7.5158   -5.2588   -7.9229 O.co2   1  LIG1       -0.5492
      5 O          -2.0113   -1.0949   -6.7781 O.2     1  LIG1       -0.2456
      6 O          -2.6827    2.2180  -13.2546 O.3     1  LIG1       -0.5067
      7 O           1.1968    1.6812   -7.9494 O.2     1  LIG1       -0.2705
      8 O           2.8102    5.6795   -5.2938 O.co2   1  LIG1       -0.5452
      9 O           0.9054    5.8513   -4.0391 O.co2   1  LIG1       -0.5452
     10 N           0.0247    3.6006   -8.5846 N.am    1  LIG1       -0.2815
     11 C          -6.8085   -0.0085   -7.3856 C.3     1  LIG1       -0.0160
     12 C          -6.0682    1.0241   -8.3151 C.3     1  LIG1       -0.0256
     13 C          -5.7884   -1.2436   -7.0056 C.3     1  LIG1        0.0318
     14 C          -6.7168    2.4735   -8.5010 C.3     1  LIG1       -0.0243
     15 C          -7.1161    3.0099   -7.0809 C.3     1  LIG1       -0.0235
     16 C          -7.3193    0.6989   -6.1057 C.3     1  LIG1       -0.0461
     17 C          -5.0800   -1.7658   -8.2811 C.2     1  LIG1       -0.0596
     18 C          -4.4030   -3.1488   -8.1559 C.3     1  LIG1       -0.0080
     19 C          -8.0518    2.0139   -6.3686 C.3     1  LIG1       -0.0483
     20 C          -6.6129   -2.4043   -6.3454 C.3     1  LIG1       -0.0392
     21 C          -5.6216    0.3301   -9.6178 C.3     1  LIG1       -0.0306
     22 C          -5.3651   -4.2309   -7.6107 C.3     1  LIG1        0.0167
     23 C          -7.5808    4.5020   -6.9948 C.3     1  LIG1        0.0267
     24 C          -5.6131    3.4374   -9.0327 C.3     1  LIG1       -0.0404
     25 C          -5.8883   -3.7476   -6.2368 C.3     1  LIG1       -0.0408
     26 C          -8.0610   -0.5739   -8.1312 C.3     1  LIG1       -0.0584
     27 C          -5.0394   -1.0374   -9.4158 C.2     1  LIG1       -0.0835
     28 C          -4.6633   -0.8542   -5.9545 C.3     1  LIG1        0.1025
     29 C          -7.8832    2.4812   -9.5144 C.3     1  LIG1       -0.0590
     30 C          -3.5652   -3.6268   -9.3681 C.3     1  LIG1       -0.0405
     31 C          -4.6139   -5.5684   -7.3921 C.3     1  LIG1       -0.0412
     32 C          -6.0246    4.9022   -9.0789 C.3     1  LIG1        0.0069
     33 C          -2.8255   -4.9646   -9.1277 C.3     1  LIG1       -0.0343
     34 C          -6.6293    5.4124   -7.7913 C.2     1  LIG1        0.1392
     35 C          -3.8154   -6.0273   -8.6133 C.3     1  LIG1       -0.0470
     36 C          -9.0126    4.7648   -7.4858 C.3     1  LIG1       -0.0528
     37 C          -7.5159    4.9667   -5.5140 C.3     1  LIG1       -0.0528
     38 C          -6.5871   -4.6242   -8.5082 C.2     1  LIG1        0.0485
     39 C          -2.2226   -5.4486  -10.4608 C.3     1  LIG1       -0.0598
     40 C          -1.6621   -4.7767   -8.1323 C.3     1  LIG1       -0.0598
     41 C          -2.6241   -0.0473   -6.8891 C.2     1  LIG1        0.3320
     42 C          -2.2498    1.0837   -7.7628 C.2     1  LIG1        0.0231
     43 C          -1.4250    0.8776   -8.8002 C.2     1  LIG1       -0.0460
     44 C          -1.2771    1.8832   -9.8606 C.ar    1  LIG1       -0.0001
     45 C          -0.6842    3.1519   -9.7186 C.ar    1  LIG1        0.0411
     46 C          -1.9367    1.5657  -11.0657 C.ar    1  LIG1       -0.0113
     47 C          -0.8173    4.0894  -10.7588 C.ar    1  LIG1       -0.0364
     48 C          -2.0282    2.5006  -12.0918 C.ar    1  LIG1        0.1175
     49 C          -1.4764    3.7620  -11.9453 C.ar    1  LIG1       -0.0184
     50 C           0.8622    2.8443   -7.7870 C.2     1  LIG1        0.2411
     51 C           1.5458    3.6855   -6.7732 C.2     1  LIG1        0.0021
     52 C           0.8715    4.4943   -5.9427 C.2     1  LIG1       -0.0344
     53 C           1.6139    5.4170   -4.9889 C.2     1  LIG1        0.0647
     54 H          -3.0372    1.3145  -13.1898 H       1  LIG1        0.2921
     55 H           0.1599    4.5999   -8.4896 H       1  LIG1        0.1551
     56 H          -5.1432    1.2649   -7.7944 H       1  LIG1        0.0315
     57 H          -6.1764    2.9915   -6.5025 H       1  LIG1        0.0315
     58 H          -6.4857    0.9375   -5.4389 H       1  LIG1        0.0271
     59 H          -7.9807    0.0335   -5.5379 H       1  LIG1        0.0271
     60 H          -3.6485   -3.0002   -7.3744 H       1  LIG1        0.0355
     61 H          -8.9696    1.8383   -6.9368 H       1  LIG1        0.0269
     62 H          -8.3706    2.4016   -5.3967 H       1  LIG1        0.0269
     63 H          -7.5288   -2.6087   -6.9031 H       1  LIG1        0.0275
     64 H          -6.9367   -2.1025   -5.3416 H       1  LIG1        0.0275
     65 H          -6.4516    0.2191  -10.3210 H       1  LIG1        0.0310
     66 H          -4.8649    0.9439  -10.1168 H       1  LIG1        0.0310
     67 H          -5.2947    3.1395  -10.0382 H       1  LIG1        0.0275
     68 H          -4.7243    3.3614   -8.3927 H       1  LIG1        0.0275
     69 H          -6.5717   -4.4802   -5.7889 H       1  LIG1        0.0275
     70 H          -5.0586   -3.6612   -5.5245 H       1  LIG1        0.0275
     71 H          -8.6386    0.1929   -8.6389 H       1  LIG1        0.0235
     72 H          -8.7656   -1.0463   -7.4377 H       1  LIG1        0.0235
     73 H          -7.7976   -1.3176   -8.8897 H       1  LIG1        0.0235
     74 H          -4.5718   -1.4555  -10.3026 H       1  LIG1        0.0572
     75 H          -5.1201   -0.5617   -5.0035 H       1  LIG1        0.0706
     76 H          -4.0330   -1.7099   -5.6939 H       1  LIG1        0.0706
     77 H          -8.8264    2.1439   -9.0840 H       1  LIG1        0.0235
     78 H          -7.6738    1.8687  -10.3940 H       1  LIG1        0.0235
     79 H          -8.0837    3.4743   -9.9188 H       1  LIG1        0.0235
     80 H          -2.8223   -2.8573   -9.6200 H       1  LIG1        0.0276
     81 H          -4.2045   -3.7271  -10.2526 H       1  LIG1        0.0276
     82 H          -5.3098   -6.3703   -7.1121 H       1  LIG1        0.0274
     83 H          -3.9294   -5.4716   -6.5398 H       1  LIG1        0.0274
     84 H          -6.7357    5.0967   -9.8867 H       1  LIG1        0.0342
     85 H          -5.1319    5.5039   -9.2915 H       1  LIG1        0.0342
     86 H          -4.5150   -6.2998   -9.4138 H       1  LIG1        0.0271
     87 H          -3.2771   -6.9491   -8.3578 H       1  LIG1        0.0271
     88 H          -9.1169    4.6669   -8.5669 H       1  LIG1        0.0239
     89 H          -9.3173    5.7935   -7.2549 H       1  LIG1        0.0239
     90 H          -9.7378    4.1001   -7.0068 H       1  LIG1        0.0239
     91 H          -6.5168    4.8056   -5.0919 H       1  LIG1        0.0239
     92 H          -8.2412    4.4439   -4.8839 H       1  LIG1        0.0239
     93 H          -7.7352    6.0364   -5.4143 H       1  LIG1        0.0239
     94 H          -3.0004   -5.6044  -11.2166 H       1  LIG1        0.0235
     95 H          -1.6898   -6.3976  -10.3322 H       1  LIG1        0.0235
     96 H          -1.5113   -4.7172  -10.8614 H       1  LIG1        0.0235
     97 H          -1.9969   -4.4432   -7.1463 H       1  LIG1        0.0235
     98 H          -0.9467   -4.0326   -8.5014 H       1  LIG1        0.0235
     99 H          -1.1157   -5.7159   -7.9873 H       1  LIG1        0.0235
    100 H          -2.7719    2.0194   -7.6145 H       1  LIG1        0.0689
    101 H          -0.9414   -0.0826   -8.9624 H       1  LIG1        0.0626
    102 H          -2.4082    0.5909  -11.1720 H       1  LIG1        0.0660
    103 H          -0.3753    5.0782  -10.6677 H       1  LIG1        0.0637
    104 H          -1.5528    4.4886  -12.7483 H       1  LIG1        0.0655
    105 H           2.6290    3.6199   -6.7569 H       1  LIG1        0.0670
    106 H          -0.2131    4.5155   -5.9114 H       1  LIG1        0.0637
@<TRIPOS>BOND
     1     1    41    1
     2     1    28    1
     3     2    34    2
     4     3    38   ar
     5     4    38   ar
     6     5    41    2
     7     6    48    1
     8     7    50    2
     9     8    53   ar
    10     9    53   ar
    11    10    45    1
    12    10    50   am
    13    11    16    1
    14    11    12    1
    15    11    26    1
    16    11    13    1
    17    12    14    1
    18    13    20    1
    19    13    17    1
    20    13    28    1
    21    14    15    1
    22    14    24    1
    23    14    29    1
    24    15    19    1
    25    15    23    1
    26    16    19    1
    27    17    18    1
    28    17    27    2
    29    18    30    1
    30    18    22    1
    31    20    25    1
    32    21    27    1
    33    21    12    1
    34    22    31    1
    35    22    25    1
    36    22    38    1
    37    23    34    1
    38    23    37    1
    39    23    36    1
    40    24    32    1
    41    30    33    1
    42    31    35    1
    43    32    34    1
    44    33    35    1
    45    33    40    1
    46    33    39    1
    47    41    42    1
    48    42    43    2
    49    43    44    1
    50    44    46   ar
    51    44    45   ar
    52    45    47   ar
    53    46    48   ar
    54    47    49   ar
    55    48    49   ar
    56    50    51    1
    57    51    52    2
    58    52    53    1
    59     6    54    1
    60    10    55    1
    61    12    56    1
    62    15    57    1
    63    16    58    1
    64    16    59    1
    65    18    60    1
    66    19    61    1
    67    19    62    1
    68    20    63    1
    69    20    64    1
    70    21    65    1
    71    21    66    1
    72    24    67    1
    73    24    68    1
    74    25    69    1
    75    25    70    1
    76    26    71    1
    77    26    72    1
    78    26    73    1
    79    27    74    1
    80    28    75    1
    81    28    76    1
    82    29    77    1
    83    29    78    1
    84    29    79    1
    85    30    80    1
    86    30    81    1
    87    31    82    1
    88    31    83    1
    89    32    84    1
    90    32    85    1
    91    35    86    1
    92    35    87    1
    93    36    88    1
    94    36    89    1
    95    36    90    1
    96    37    91    1
    97    37    92    1
    98    37    93    1
    99    39    94    1
   100    39    95    1
   101    39    96    1
   102    40    97    1
   103    40    98    1
   104    40    99    1
   105    42   100    1
   106    43   101    1
   107    46   102    1
   108    47   103    1
   109    49   104    1
   110    51   105    1
   111    52   106    1
@<TRIPOS>MOLECULE
11672244
 106 111 0 0 0
SMALL
GASTEIGER

@<TRIPOS>ATOM
      1 O          -4.9538   -0.1528   -4.8184 O.3     1  LIG1       -0.4607
      2 O          -6.2156    6.4959   -7.1300 O.2     1  LIG1       -0.2968
      3 O          -6.4309   -4.2064   -9.6706 O.co2   1  LIG1       -0.5492
      4 O          -7.2574   -5.4948   -7.9935 O.co2   1  LIG1       -0.5492
      5 O          -3.8819   -1.6445   -3.4251 O.2     1  LIG1       -0.2456
      6 O          -2.3546    4.9112   -0.3144 O.3     1  LIG1       -0.5067
      7 O          -7.6324    2.3612   -3.2462 O.2     1  LIG1       -0.2705
      8 O         -11.9607    1.1597   -0.9827 O.co2   1  LIG1       -0.5452
      9 O         -12.7420    2.1246   -2.9025 O.co2   1  LIG1       -0.5452
     10 N          -7.3046    2.4293   -0.9401 N.am    1  LIG1       -0.2815
     11 C          -6.7297   -0.0472   -7.4443 C.3     1  LIG1       -0.0160
     12 C          -5.8791    1.0309   -8.2131 C.3     1  LIG1       -0.0256
     13 C          -5.7140   -1.2630   -6.9966 C.3     1  LIG1        0.0318
     14 C          -6.5264    2.4771   -8.4297 C.3     1  LIG1       -0.0243
     15 C          -7.0940    2.9504   -7.0449 C.3     1  LIG1       -0.0235
     16 C          -7.4747    0.5930   -6.2405 C.3     1  LIG1       -0.0461
     17 C          -4.9254   -1.7769   -8.2377 C.2     1  LIG1       -0.0596
     18 C          -4.2782   -3.1724   -8.1120 C.3     1  LIG1       -0.0080
     19 C          -8.1410    1.9387   -6.5376 C.3     1  LIG1       -0.0483
     20 C          -6.5448   -2.4112   -6.3452 C.3     1  LIG1       -0.0392
     21 C          -5.2667    0.4076   -9.4881 C.3     1  LIG1       -0.0306
     22 C          -5.2470   -4.2483   -7.5698 C.3     1  LIG1        0.0167
     23 C          -7.5283    4.4527   -6.9259 C.3     1  LIG1        0.0267
     24 C          -5.3880    3.4633   -8.8206 C.3     1  LIG1       -0.0404
     25 C          -5.8266   -3.7570   -6.2217 C.3     1  LIG1       -0.0408
     26 C          -7.8480   -0.6224   -8.3785 C.3     1  LIG1       -0.0584
     27 C          -4.7530   -0.9914   -9.3205 C.2     1  LIG1       -0.0835
     28 C          -4.5569   -0.8509   -6.0025 C.3     1  LIG1        0.1025
     29 C          -7.5799    2.5057   -9.5643 C.3     1  LIG1       -0.0590
     30 C          -3.4507   -3.6661   -9.3283 C.3     1  LIG1       -0.0405
     31 C          -4.4693   -5.5641   -7.3042 C.3     1  LIG1       -0.0412
     32 C          -5.8112    4.9236   -8.8488 C.3     1  LIG1        0.0069
     33 C          -2.7181   -5.0088   -9.0913 C.3     1  LIG1       -0.0343
     34 C          -6.4616    5.3639   -7.5604 C.2     1  LIG1        0.1392
     35 C          -3.6923   -6.0590   -8.5253 C.3     1  LIG1       -0.0470
     36 C          -8.8874    4.7839   -7.5578 C.3     1  LIG1       -0.0528
     37 C          -7.6189    4.8424   -5.4269 C.3     1  LIG1       -0.0528
     38 C          -6.4335   -4.6755   -8.4982 C.2     1  LIG1        0.0485
     39 C          -2.1626   -5.5173  -10.4360 C.3     1  LIG1       -0.0598
     40 C          -1.5212   -4.8115   -8.1378 C.3     1  LIG1       -0.0598
     41 C          -4.4812   -0.6007   -3.6342 C.2     1  LIG1        0.3320
     42 C          -4.6472    0.4090   -2.5661 C.2     1  LIG1        0.0231
     43 C          -4.9595    1.6926   -2.8014 C.2     1  LIG1       -0.0460
     44 C          -4.9421    2.7045   -1.7393 C.ar    1  LIG1       -0.0001
     45 C          -6.0061    2.9777   -0.8581 C.ar    1  LIG1        0.0411
     46 C          -3.7094    3.3626   -1.5543 C.ar    1  LIG1       -0.0113
     47 C          -5.7900    3.8540    0.2206 C.ar    1  LIG1       -0.0364
     48 C          -3.5370    4.2585   -0.5043 C.ar    1  LIG1        0.1175
     49 C          -4.5654    4.5017    0.3902 C.ar    1  LIG1       -0.0184
     50 C          -8.0052    2.1575   -2.1008 C.2     1  LIG1        0.2411
     51 C          -9.3854    1.7202   -1.7759 C.2     1  LIG1        0.0021
     52 C         -10.4273    2.0527   -2.5504 C.2     1  LIG1       -0.0344
     53 C         -11.8467    1.7255   -2.1072 C.2     1  LIG1        0.0647
     54 H          -1.7664    4.6880   -1.0549 H       1  LIG1        0.2921
     55 H          -7.8900    2.5268   -0.1200 H       1  LIG1        0.1551
     56 H          -5.0257    1.2390   -7.5530 H       1  LIG1        0.0315
     57 H          -6.2403    2.8697   -6.3507 H       1  LIG1        0.0315
     58 H          -6.7972    0.7842   -5.4139 H       1  LIG1        0.0271
     59 H          -8.2303   -0.0964   -5.8441 H       1  LIG1        0.0271
     60 H          -3.5179   -3.0307   -7.3321 H       1  LIG1        0.0355
     61 H          -8.9680    1.8102   -7.2404 H       1  LIG1        0.0269
     62 H          -8.6037    2.2889   -5.6116 H       1  LIG1        0.0269
     63 H          -7.4543   -2.6122   -6.9156 H       1  LIG1        0.0275
     64 H          -6.8808   -2.1025   -5.3476 H       1  LIG1        0.0275
     65 H          -5.9900    0.3747  -10.3068 H       1  LIG1        0.0310
     66 H          -4.4300    1.0276   -9.8288 H       1  LIG1        0.0310
     67 H          -4.9825    3.2074   -9.8066 H       1  LIG1        0.0275
     68 H          -4.5585    3.3642   -8.1076 H       1  LIG1        0.0275
     69 H          -6.5309   -4.4886   -5.8051 H       1  LIG1        0.0275
     70 H          -5.0259   -3.6726   -5.4765 H       1  LIG1        0.0275
     71 H          -8.4028    0.1529   -8.9001 H       1  LIG1        0.0235
     72 H          -8.6043   -1.1777   -7.8134 H       1  LIG1        0.0235
     73 H          -7.4612   -1.2998   -9.1444 H       1  LIG1        0.0235
     74 H          -4.2224   -1.3733  -10.1875 H       1  LIG1        0.0572
     75 H          -3.9558   -1.7249   -5.7342 H       1  LIG1        0.0706
     76 H          -3.8525   -0.1801   -6.5088 H       1  LIG1        0.0706
     77 H          -8.5546    2.1233   -9.2631 H       1  LIG1        0.0235
     78 H          -7.2600    1.9463  -10.4454 H       1  LIG1        0.0235
     79 H          -7.7694    3.5126   -9.9385 H       1  LIG1        0.0235
     80 H          -2.6985   -2.9085   -9.5880 H       1  LIG1        0.0276
     81 H          -4.0970   -3.7582  -10.2086 H       1  LIG1        0.0276
     82 H          -5.1420   -6.3652   -6.9715 H       1  LIG1        0.0274
     83 H          -3.7686   -5.4160   -6.4725 H       1  LIG1        0.0274
     84 H          -6.4942    5.1448   -9.6733 H       1  LIG1        0.0342
     85 H          -4.9183    5.5404   -9.0072 H       1  LIG1        0.0342
     86 H          -4.4057   -6.3598   -9.3032 H       1  LIG1        0.0271
     87 H          -3.1447   -6.9700   -8.2515 H       1  LIG1        0.0271
     88 H          -8.8898    4.6828   -8.6431 H       1  LIG1        0.0239
     89 H          -9.1622    5.8272   -7.3569 H       1  LIG1        0.0239
     90 H          -9.6873    4.1561   -7.1526 H       1  LIG1        0.0239
     91 H          -6.6792    4.6300   -4.9038 H       1  LIG1        0.0239
     92 H          -8.4269    4.3142   -4.9134 H       1  LIG1        0.0239
     93 H          -7.8194    5.9132   -5.2990 H       1  LIG1        0.0239
     94 H          -2.9669   -5.6825  -11.1616 H       1  LIG1        0.0235
     95 H          -1.6292   -6.4663  -10.3101 H       1  LIG1        0.0235
     96 H          -1.4636   -4.7955  -10.8735 H       1  LIG1        0.0235
     97 H          -1.8229   -4.4538   -7.1495 H       1  LIG1        0.0235
     98 H          -0.8116   -4.0822   -8.5451 H       1  LIG1        0.0235
     99 H          -0.9783   -5.7523   -7.9908 H       1  LIG1        0.0235
    100 H          -4.3998    0.0541   -1.5723 H       1  LIG1        0.0689
    101 H          -5.1854    2.0624   -3.7983 H       1  LIG1        0.0626
    102 H          -2.8876    3.1504   -2.2332 H       1  LIG1        0.0660
    103 H          -6.5945    4.0780    0.9173 H       1  LIG1        0.0637
    104 H          -4.4248    5.2012    1.2085 H       1  LIG1        0.0655
    105 H          -9.5380    1.1721   -0.8523 H       1  LIG1        0.0670
    106 H         -10.2953    2.6059   -3.4741 H       1  LIG1        0.0637
@<TRIPOS>BOND
     1     1    41    1
     2     1    28    1
     3     2    34    2
     4     3    38   ar
     5     4    38   ar
     6     5    41    2
     7     6    48    1
     8     7    50    2
     9     8    53   ar
    10     9    53   ar
    11    10    45    1
    12    10    50   am
    13    11    16    1
    14    11    12    1
    15    11    26    1
    16    11    13    1
    17    12    14    1
    18    13    20    1
    19    13    17    1
    20    13    28    1
    21    14    15    1
    22    14    24    1
    23    14    29    1
    24    15    19    1
    25    15    23    1
    26    16    19    1
    27    17    18    1
    28    17    27    2
    29    18    30    1
    30    18    22    1
    31    20    25    1
    32    21    27    1
    33    21    12    1
    34    22    31    1
    35    22    25    1
    36    22    38    1
    37    23    34    1
    38    23    37    1
    39    23    36    1
    40    24    32    1
    41    30    33    1
    42    31    35    1
    43    32    34    1
    44    33    35    1
    45    33    40    1
    46    33    39    1
    47    41    42    1
    48    42    43    2
    49    43    44    1
    50    44    46   ar
    51    44    45   ar
    52    45    47   ar
    53    46    48   ar
    54    47    49   ar
    55    48    49   ar
    56    50    51    1
    57    51    52    2
    58    52    53    1
    59     6    54    1
    60    10    55    1
    61    12    56    1
    62    15    57    1
    63    16    58    1
    64    16    59    1
    65    18    60    1
    66    19    61    1
    67    19    62    1
    68    20    63    1
    69    20    64    1
    70    21    65    1
    71    21    66    1
    72    24    67    1
    73    24    68    1
    74    25    69    1
    75    25    70    1
    76    26    71    1
    77    26    72    1
    78    26    73    1
    79    27    74    1
    80    28    75    1
    81    28    76    1
    82    29    77    1
    83    29    78    1
    84    29    79    1
    85    30    80    1
    86    30    81    1
    87    31    82    1
    88    31    83    1
    89    32    84    1
    90    32    85    1
    91    35    86    1
    92    35    87    1
    93    36    88    1
    94    36    89    1
    95    36    90    1
    96    37    91    1
    97    37    92    1
    98    37    93    1
    99    39    94    1
   100    39    95    1
   101    39    96    1
   102    40    97    1
   103    40    98    1
   104    40    99    1
   105    42   100    1
   106    43   101    1
   107    46   102    1
   108    47   103    1
   109    49   104    1
   110    51   105    1
   111    52   106    1
@<TRIPOS>MOLECULE
11672244
 106 111 0 0 0
SMALL
GASTEIGER

@<TRIPOS>ATOM
      1 O          -4.7142   -0.0501   -4.8517 O.3     1  LIG1       -0.4607
      2 O          -6.2546    6.5641   -7.1260 O.2     1  LIG1       -0.2968
      3 O          -6.5817   -4.1129   -9.6410 O.co2   1  LIG1       -0.5492
      4 O          -7.4882   -5.2679   -7.9121 O.co2   1  LIG1       -0.5492
      5 O          -4.8637   -1.8720   -3.4468 O.2     1  LIG1       -0.2456
      6 O          -2.8351    3.1461    1.6876 O.3     1  LIG1       -0.5067
      7 O          -1.1295   -2.3308   -1.4087 O.2     1  LIG1       -0.2705
      8 O           2.8337   -3.0236   -4.4291 O.co2   1  LIG1       -0.5452
      9 O           2.4353   -5.1627   -3.7280 O.co2   1  LIG1       -0.5452
     10 N          -0.2015   -0.2429   -1.8662 N.am    1  LIG1       -0.2815
     11 C          -6.7028    0.0028   -7.3584 C.3     1  LIG1       -0.0160
     12 C          -5.8667    1.0708   -8.1541 C.3     1  LIG1       -0.0256
     13 C          -5.6999   -1.2282   -6.9484 C.3     1  LIG1        0.0318
     14 C          -6.5196    2.5164   -8.3593 C.3     1  LIG1       -0.0243
     15 C          -7.0453    3.0037   -6.9628 C.3     1  LIG1       -0.0235
     16 C          -7.3805    0.6464   -6.1200 C.3     1  LIG1       -0.0461
     17 C          -4.9764   -1.7576   -8.2205 C.2     1  LIG1       -0.0596
     18 C          -4.3586   -3.1678   -8.1173 C.3     1  LIG1       -0.0080
     19 C          -8.0567    1.9917   -6.3868 C.3     1  LIG1       -0.0483
     20 C          -6.5314   -2.3581   -6.2663 C.3     1  LIG1       -0.0392
     21 C          -5.2900    0.4429   -9.4453 C.3     1  LIG1       -0.0306
     22 C          -5.3499   -4.2184   -7.5676 C.3     1  LIG1        0.0167
     23 C          -7.5053    4.4987   -6.8668 C.3     1  LIG1        0.0267
     24 C          -5.3918    3.5007   -8.7873 C.3     1  LIG1       -0.0404
     25 C          -5.8523   -3.7268   -6.1880 C.3     1  LIG1       -0.0408
     26 C          -7.8669   -0.5461   -8.2526 C.3     1  LIG1       -0.0584
     27 C          -4.8149   -0.9710   -9.3037 C.2     1  LIG1       -0.0835
     28 C          -4.4813   -0.8431   -6.0206 C.3     1  LIG1        0.1025
     29 C          -7.6105    2.5402   -9.4589 C.3     1  LIG1       -0.0590
     30 C          -3.5575   -3.6686   -9.3455 C.3     1  LIG1       -0.0405
     31 C          -4.6264   -5.5724   -7.3505 C.3     1  LIG1       -0.0412
     32 C          -5.8118    4.9633   -8.8165 C.3     1  LIG1        0.0069
     33 C          -2.8493   -5.0248   -9.1171 C.3     1  LIG1       -0.0343
     34 C          -6.4641    5.4164   -7.5325 C.2     1  LIG1        0.1392
     35 C          -3.8577   -6.0584   -8.5805 C.3     1  LIG1       -0.0470
     36 C          -8.8776    4.7991   -7.4879 C.3     1  LIG1       -0.0528
     37 C          -7.5833    4.9118   -5.3725 C.3     1  LIG1       -0.0528
     38 C          -6.5914   -4.5586   -8.4589 C.2     1  LIG1        0.0485
     39 C          -2.2850   -5.5253  -10.4606 C.3     1  LIG1       -0.0598
     40 C          -1.6597   -4.8641   -8.1465 C.3     1  LIG1       -0.0598
     41 C          -4.5679   -0.7142   -3.6775 C.2     1  LIG1        0.3320
     42 C          -3.8469    0.1845   -2.7530 C.2     1  LIG1        0.0231
     43 C          -3.2404   -0.3281   -1.6713 C.2     1  LIG1       -0.0460
     44 C          -2.3648    0.4974   -0.8291 C.ar    1  LIG1       -0.0001
     45 C          -0.9656    0.5776   -1.0042 C.ar    1  LIG1        0.0411
     46 C          -2.9933    1.3593    0.0888 C.ar    1  LIG1       -0.0113
     47 C          -0.2466    1.5722   -0.3206 C.ar    1  LIG1       -0.0364
     48 C          -2.2476    2.3007    0.7912 C.ar    1  LIG1        0.1175
     49 C          -0.8823    2.4229    0.5836 C.ar    1  LIG1       -0.0184
     50 C          -0.3483   -1.6132   -2.0162 C.2     1  LIG1        0.2411
     51 C           0.7030   -2.1515   -2.9209 C.2     1  LIG1        0.0021
     52 C           1.0455   -3.4475   -2.9350 C.2     1  LIG1       -0.0344
     53 C           2.2084   -3.9230   -3.7968 C.2     1  LIG1        0.0647
     54 H          -3.7721    2.9005    1.7595 H       1  LIG1        0.2921
     55 H           0.7119    0.1044   -2.1276 H       1  LIG1        0.1551
     56 H          -4.9946    1.2765   -7.5170 H       1  LIG1        0.0315
     57 H          -6.1660    2.9518   -6.2984 H       1  LIG1        0.0315
     58 H          -6.6609    0.8308   -5.3256 H       1  LIG1        0.0271
     59 H          -8.1214   -0.0386   -5.6895 H       1  LIG1        0.0271
     60 H          -3.5845   -3.0504   -7.3474 H       1  LIG1        0.0355
     61 H          -8.9241    1.8609   -7.0393 H       1  LIG1        0.0269
     62 H          -8.4564    2.3427   -5.4306 H       1  LIG1        0.0269
     63 H          -7.4716   -2.5286   -6.7947 H       1  LIG1        0.0275
     64 H          -6.8189   -2.0477   -5.2551 H       1  LIG1        0.0275
     65 H          -6.0234    0.4372  -10.2549 H       1  LIG1        0.0310
     66 H          -4.4421    1.0448   -9.7916 H       1  LIG1        0.0310
     67 H          -5.0106    3.2357   -9.7806 H       1  LIG1        0.0275
     68 H          -4.5449    3.4062   -8.0944 H       1  LIG1        0.0275
     69 H          -6.5580   -4.4416   -5.7454 H       1  LIG1        0.0275
     70 H          -5.0146   -3.6773   -5.4820 H       1  LIG1        0.0275
     71 H          -8.4313    0.2416   -8.7440 H       1  LIG1        0.0235
     72 H          -8.6103   -1.0942   -7.6642 H       1  LIG1        0.0235
     73 H          -7.5211   -1.2206   -9.0405 H       1  LIG1        0.0235
     74 H          -4.3166   -1.3634  -10.1856 H       1  LIG1        0.0572
     75 H          -3.9120   -1.7350   -5.7328 H       1  LIG1        0.0706
     76 H          -3.7591   -0.2537   -6.6004 H       1  LIG1        0.0706
     77 H          -8.5905    2.2244   -9.1001 H       1  LIG1        0.0235
     78 H          -7.3576    1.9205  -10.3203 H       1  LIG1        0.0235
     79 H          -7.7624    3.5347   -9.8813 H       1  LIG1        0.0235
     80 H          -2.7941   -2.9244   -9.6109 H       1  LIG1        0.0276
     81 H          -4.2170   -3.7476  -10.2174 H       1  LIG1        0.0276
     82 H          -5.3344   -6.3560   -7.0517 H       1  LIG1        0.0274
     83 H          -3.9249   -5.4842   -6.5108 H       1  LIG1        0.0274
     84 H          -6.4944    5.1805   -9.6426 H       1  LIG1        0.0342
     85 H          -4.9176    5.5775   -8.9779 H       1  LIG1        0.0342
     86 H          -4.5773   -6.3162   -9.3678 H       1  LIG1        0.0271
     87 H          -3.3381   -6.9914   -8.3273 H       1  LIG1        0.0271
     88 H          -8.8829    4.7132   -8.5748 H       1  LIG1        0.0239
     89 H          -9.1800    5.8324   -7.2750 H       1  LIG1        0.0239
     90 H          -9.6586    4.1460   -7.0866 H       1  LIG1        0.0239
     91 H          -6.6294    4.7345   -4.8626 H       1  LIG1        0.0239
     92 H          -8.3657    4.3702   -4.8332 H       1  LIG1        0.0239
     93 H          -7.8120    5.9787   -5.2601 H       1  LIG1        0.0239
     94 H          -3.0818   -5.6681  -11.1990 H       1  LIG1        0.0235
     95 H          -1.7682   -6.4844  -10.3396 H       1  LIG1        0.0235
     96 H          -1.5680   -4.8099  -10.8792 H       1  LIG1        0.0235
     97 H          -1.9648   -4.5241   -7.1530 H       1  LIG1        0.0235
     98 H          -0.9364   -4.1357   -8.5310 H       1  LIG1        0.0235
     99 H          -1.1308   -5.8147   -8.0141 H       1  LIG1        0.0235
    100 H          -3.7400    1.2207   -3.0465 H       1  LIG1        0.0689
    101 H          -3.3174   -1.3829   -1.4168 H       1  LIG1        0.0626
    102 H          -4.0697    1.2961    0.2224 H       1  LIG1        0.0660
    103 H           0.8280    1.6653   -0.4550 H       1  LIG1        0.0637
    104 H          -0.3109    3.1684    1.1273 H       1  LIG1        0.0655
    105 H           1.2253   -1.4516   -3.5642 H       1  LIG1        0.0670
    106 H           0.5383   -4.1773   -2.3124 H       1  LIG1        0.0637
@<TRIPOS>BOND
     1     1    41    1
     2     1    28    1
     3     2    34    2
     4     3    38   ar
     5     4    38   ar
     6     5    41    2
     7     6    48    1
     8     7    50    2
     9     8    53   ar
    10     9    53   ar
    11    10    45    1
    12    10    50   am
    13    11    16    1
    14    11    12    1
    15    11    26    1
    16    11    13    1
    17    12    14    1
    18    13    20    1
    19    13    17    1
    20    13    28    1
    21    14    15    1
    22    14    24    1
    23    14    29    1
    24    15    19    1
    25    15    23    1
    26    16    19    1
    27    17    18    1
    28    17    27    2
    29    18    30    1
    30    18    22    1
    31    20    25    1
    32    21    27    1
    33    21    12    1
    34    22    31    1
    35    22    25    1
    36    22    38    1
    37    23    34    1
    38    23    37    1
    39    23    36    1
    40    24    32    1
    41    30    33    1
    42    31    35    1
    43    32    34    1
    44    33    35    1
    45    33    40    1
    46    33    39    1
    47    41    42    1
    48    42    43    2
    49    43    44    1
    50    44    46   ar
    51    44    45   ar
    52    45    47   ar
    53    46    48   ar
    54    47    49   ar
    55    48    49   ar
    56    50    51    1
    57    51    52    2
    58    52    53    1
    59     6    54    1
    60    10    55    1
    61    12    56    1
    62    15    57    1
    63    16    58    1
    64    16    59    1
    65    18    60    1
    66    19    61    1
    67    19    62    1
    68    20    63    1
    69    20    64    1
    70    21    65    1
    71    21    66    1
    72    24    67    1
    73    24    68    1
    74    25    69    1
    75    25    70    1
    76    26    71    1
    77    26    72    1
    78    26    73    1
    79    27    74    1
    80    28    75    1
    81    28    76    1
    82    29    77    1
    83    29    78    1
    84    29    79    1
    85    30    80    1
    86    30    81    1
    87    31    82    1
    88    31    83    1
    89    32    84    1
    90    32    85    1
    91    35    86    1
    92    35    87    1
    93    36    88    1
    94    36    89    1
    95    36    90    1
    96    37    91    1
    97    37    92    1
    98    37    93    1
    99    39    94    1
   100    39    95    1
   101    39    96    1
   102    40    97    1
   103    40    98    1
   104    40    99    1
   105    42   100    1
   106    43   101    1
   107    46   102    1
   108    47   103    1
   109    49   104    1
   110    51   105    1
   111    52   106    1
@<TRIPOS>MOLECULE
11672244
 106 111 0 0 0
SMALL
GASTEIGER

@<TRIPOS>ATOM
      1 O          -4.9515   -0.1451   -4.8355 O.3     1  LIG1       -0.4607
      2 O          -6.2267    6.4859   -7.1065 O.2     1  LIG1       -0.2968
      3 O          -6.4130   -4.1950   -9.6937 O.co2   1  LIG1       -0.5492
      4 O          -7.2246   -5.5240   -8.0413 O.co2   1  LIG1       -0.5492
      5 O          -3.8516   -1.6053   -3.4288 O.2     1  LIG1       -0.2456
      6 O          -2.3833    4.9073   -0.3131 O.3     1  LIG1       -0.5067
      7 O          -7.6618    2.0769   -3.2546 O.2     1  LIG1       -0.2705
      8 O         -11.9344    0.8348   -0.9522 O.co2   1  LIG1       -0.5452
      9 O         -12.4053    0.2117   -3.0992 O.co2   1  LIG1       -0.5452
     10 N          -7.3738    2.5095   -0.9867 N.am    1  LIG1       -0.2815
     11 C          -6.7271   -0.0578   -7.4604 C.3     1  LIG1       -0.0160
     12 C          -5.8744    1.0249   -8.2201 C.3     1  LIG1       -0.0256
     13 C          -5.7101   -1.2705   -7.0106 C.3     1  LIG1        0.0318
     14 C          -6.5217    2.4717   -8.4297 C.3     1  LIG1       -0.0243
     15 C          -7.0922    2.9338   -7.0429 C.3     1  LIG1       -0.0235
     16 C          -7.4817    0.5724   -6.2584 C.3     1  LIG1       -0.0461
     17 C          -4.9157   -1.7796   -8.2502 C.2     1  LIG1       -0.0596
     18 C          -4.2663   -3.1740   -8.1242 C.3     1  LIG1       -0.0080
     19 C          -8.1438    1.9209   -6.5485 C.3     1  LIG1       -0.0483
     20 C          -6.5419   -2.4212   -6.3650 C.3     1  LIG1       -0.0392
     21 C          -5.2580    0.4077   -9.4961 C.3     1  LIG1       -0.0306
     22 C          -5.2353   -4.2533   -7.5894 C.3     1  LIG1        0.0167
     23 C          -7.5244    4.4343   -6.9093 C.3     1  LIG1        0.0267
     24 C          -5.3834    3.4616   -8.8111 C.3     1  LIG1       -0.0404
     25 C          -5.8251   -3.7676   -6.2440 C.3     1  LIG1       -0.0408
     26 C          -7.8390   -0.6321   -8.4031 C.3     1  LIG1       -0.0584
     27 C          -4.7414   -0.9909   -9.3307 C.2     1  LIG1       -0.0835
     28 C          -4.5558   -0.8587   -6.0114 C.3     1  LIG1        0.1025
     29 C          -7.5723    2.5073   -9.5667 C.3     1  LIG1       -0.0590
     30 C          -3.4331   -3.6641   -9.3381 C.3     1  LIG1       -0.0405
     31 C          -4.4544   -5.5665   -7.3198 C.3     1  LIG1       -0.0412
     32 C          -5.8085    4.9215   -8.8303 C.3     1  LIG1        0.0069
     33 C          -2.7000   -5.0068   -9.1015 C.3     1  LIG1       -0.0343
     34 C          -6.4626    5.3531   -7.5407 C.2     1  LIG1        0.1392
     35 C          -3.6733   -6.0595   -8.5387 C.3     1  LIG1       -0.0470
     36 C          -8.8864    4.7707   -7.5323 C.3     1  LIG1       -0.0528
     37 C          -7.6050    4.8085   -5.4049 C.3     1  LIG1       -0.0528
     38 C          -6.4130   -4.6825   -8.5286 C.2     1  LIG1        0.0485
     39 C          -2.1417   -5.5132  -10.4457 C.3     1  LIG1       -0.0598
     40 C          -1.5053   -4.8096   -8.1452 C.3     1  LIG1       -0.0598
     41 C          -4.4722   -0.5738   -3.6480 C.2     1  LIG1        0.3320
     42 C          -4.6541    0.4424   -2.5865 C.2     1  LIG1        0.0231
     43 C          -4.9872    1.7199   -2.8267 C.2     1  LIG1       -0.0460
     44 C          -4.9882    2.7373   -1.7697 C.ar    1  LIG1       -0.0001
     45 C          -6.0660    3.0400   -0.9149 C.ar    1  LIG1        0.0411
     46 C          -3.7466    3.3756   -1.5650 C.ar    1  LIG1       -0.0113
     47 C          -5.8525    3.9356    0.1510 C.ar    1  LIG1       -0.0364
     48 C          -3.5764    4.2817   -0.5239 C.ar    1  LIG1        0.1175
     49 C          -4.6194    4.5616    0.3406 C.ar    1  LIG1       -0.0184
     50 C          -8.0503    2.0406   -2.0976 C.2     1  LIG1        0.2411
     51 C          -9.4103    1.5720   -1.7307 C.2     1  LIG1        0.0021
     52 C         -10.2670    1.0512   -2.6210 C.2     1  LIG1       -0.0344
     53 C         -11.6688    0.6523   -2.1756 C.2     1  LIG1        0.0647
     54 H          -1.7736    4.6385   -1.0203 H       1  LIG1        0.2921
     55 H          -7.9510    2.6459   -0.1679 H       1  LIG1        0.1551
     56 H          -5.0229    1.2296   -7.5566 H       1  LIG1        0.0315
     57 H          -6.2406    2.8447   -6.3471 H       1  LIG1        0.0315
     58 H          -6.8101    0.7542   -5.4257 H       1  LIG1        0.0271
     59 H          -8.2410   -0.1191   -5.8730 H       1  LIG1        0.0271
     60 H          -3.5099   -3.0322   -7.3404 H       1  LIG1        0.0355
     61 H          -8.9677    1.7991   -7.2560 H       1  LIG1        0.0269
     62 H          -8.6108    2.2657   -5.6226 H       1  LIG1        0.0269
     63 H          -7.4503   -2.6205   -6.9378 H       1  LIG1        0.0275
     64 H          -6.8797   -2.1153   -5.3670 H       1  LIG1        0.0275
     65 H          -5.9799    0.3763  -10.3163 H       1  LIG1        0.0310
     66 H          -4.4221    1.0308   -9.8331 H       1  LIG1        0.0310
     67 H          -4.9754    3.2126   -9.7978 H       1  LIG1        0.0275
     68 H          -4.5553    3.3586   -8.0969 H       1  LIG1        0.0275
     69 H          -6.5329   -4.5010   -5.8367 H       1  LIG1        0.0275
     70 H          -5.0301   -3.6868   -5.4923 H       1  LIG1        0.0275
     71 H          -8.3915    0.1442   -8.9257 H       1  LIG1        0.0235
     72 H          -8.5982   -1.1899   -7.8443 H       1  LIG1        0.0235
     73 H          -7.4471   -1.3071   -9.1684 H       1  LIG1        0.0235
     74 H          -4.2073   -1.3700  -10.1968 H       1  LIG1        0.0572
     75 H          -3.9663   -1.7368   -5.7315 H       1  LIG1        0.0706
     76 H          -3.8416   -0.1998   -6.5203 H       1  LIG1        0.0706
     77 H          -8.5458    2.1165   -9.2727 H       1  LIG1        0.0235
     78 H          -7.2464    1.9587  -10.4524 H       1  LIG1        0.0235
     79 H          -7.7666    3.5174   -9.9299 H       1  LIG1        0.0235
     80 H          -2.6810   -2.9050   -9.5931 H       1  LIG1        0.0276
     81 H          -4.0758   -3.7551  -10.2212 H       1  LIG1        0.0276
     82 H          -5.1251   -6.3693   -6.9875 H       1  LIG1        0.0274
     83 H          -3.7562   -5.4153   -6.4866 H       1  LIG1        0.0274
     84 H          -6.4898    5.1470   -9.6550 H       1  LIG1        0.0342
     85 H          -4.9160    5.5405   -8.9826 H       1  LIG1        0.0342
     86 H          -4.3839   -6.3617   -9.3186 H       1  LIG1        0.0271
     87 H          -3.1247   -6.9695   -8.2637 H       1  LIG1        0.0271
     88 H          -8.8952    4.6696   -8.6177 H       1  LIG1        0.0239
     89 H          -9.1567    5.8147   -7.3292 H       1  LIG1        0.0239
     90 H          -9.6861    4.1452   -7.1231 H       1  LIG1        0.0239
     91 H          -6.6558    4.6070   -4.8946 H       1  LIG1        0.0239
     92 H          -8.3961    4.2613   -4.8847 H       1  LIG1        0.0239
     93 H          -7.8213    5.8748   -5.2657 H       1  LIG1        0.0239
     94 H          -2.9447   -5.6782  -11.1729 H       1  LIG1        0.0235
     95 H          -1.6079   -6.4621  -10.3201 H       1  LIG1        0.0235
     96 H          -1.4425   -4.7905  -10.8812 H       1  LIG1        0.0235
     97 H          -1.8096   -4.4522   -7.1576 H       1  LIG1        0.0235
     98 H          -0.7950   -4.0800   -8.5506 H       1  LIG1        0.0235
     99 H          -0.9627   -5.7503   -7.9972 H       1  LIG1        0.0235
    100 H          -4.4034    0.0963   -1.5906 H       1  LIG1        0.0689
    101 H          -5.2214    2.0794   -3.8255 H       1  LIG1        0.0626
    102 H          -2.9140    3.1377   -2.2221 H       1  LIG1        0.0660
    103 H          -6.6637    4.1845    0.8313 H       1  LIG1        0.0637
    104 H          -4.4824    5.2676    1.1537 H       1  LIG1        0.0655
    105 H          -9.7254    1.6755   -0.6978 H       1  LIG1        0.0670
    106 H          -9.9976    0.9188   -3.6637 H       1  LIG1        0.0637
@<TRIPOS>BOND
     1     1    41    1
     2     1    28    1
     3     2    34    2
     4     3    38   ar
     5     4    38   ar
     6     5    41    2
     7     6    48    1
     8     7    50    2
     9     8    53   ar
    10     9    53   ar
    11    10    45    1
    12    10    50   am
    13    11    16    1
    14    11    12    1
    15    11    26    1
    16    11    13    1
    17    12    14    1
    18    13    20    1
    19    13    17    1
    20    13    28    1
    21    14    15    1
    22    14    24    1
    23    14    29    1
    24    15    19    1
    25    15    23    1
    26    16    19    1
    27    17    18    1
    28    17    27    2
    29    18    30    1
    30    18    22    1
    31    20    25    1
    32    21    27    1
    33    21    12    1
    34    22    31    1
    35    22    25    1
    36    22    38    1
    37    23    34    1
    38    23    37    1
    39    23    36    1
    40    24    32    1
    41    30    33    1
    42    31    35    1
    43    32    34    1
    44    33    35    1
    45    33    40    1
    46    33    39    1
    47    41    42    1
    48    42    43    2
    49    43    44    1
    50    44    46   ar
    51    44    45   ar
    52    45    47   ar
    53    46    48   ar
    54    47    49   ar
    55    48    49   ar
    56    50    51    1
    57    51    52    2
    58    52    53    1
    59     6    54    1
    60    10    55    1
    61    12    56    1
    62    15    57    1
    63    16    58    1
    64    16    59    1
    65    18    60    1
    66    19    61    1
    67    19    62    1
    68    20    63    1
    69    20    64    1
    70    21    65    1
    71    21    66    1
    72    24    67    1
    73    24    68    1
    74    25    69    1
    75    25    70    1
    76    26    71    1
    77    26    72    1
    78    26    73    1
    79    27    74    1
    80    28    75    1
    81    28    76    1
    82    29    77    1
    83    29    78    1
    84    29    79    1
    85    30    80    1
    86    30    81    1
    87    31    82    1
    88    31    83    1
    89    32    84    1
    90    32    85    1
    91    35    86    1
    92    35    87    1
    93    36    88    1
    94    36    89    1
    95    36    90    1
    96    37    91    1
    97    37    92    1
    98    37    93    1
    99    39    94    1
   100    39    95    1
   101    39    96    1
   102    40    97    1
   103    40    98    1
   104    40    99    1
   105    42   100    1
   106    43   101    1
   107    46   102    1
   108    47   103    1
   109    49   104    1
   110    51   105    1
   111    52   106    1
@<TRIPOS>MOLECULE
11672244
 106 111 0 0 0
SMALL
GASTEIGER

@<TRIPOS>ATOM
      1 O          -4.9469   -0.1366   -4.8284 O.3     1  LIG1       -0.4607
      2 O          -6.2136    6.4921   -7.1265 O.2     1  LIG1       -0.2968
      3 O          -6.4195   -4.2167   -9.6760 O.co2   1  LIG1       -0.5492
      4 O          -7.2623   -5.4813   -7.9890 O.co2   1  LIG1       -0.5492
      5 O          -3.9176   -1.6441   -3.4184 O.2     1  LIG1       -0.2456
      6 O          -2.3427    4.8887   -0.3169 O.3     1  LIG1       -0.5067
      7 O          -7.6557    2.3390   -3.2432 O.2     1  LIG1       -0.2705
      8 O         -12.0179    1.3152   -0.9618 O.co2   1  LIG1       -0.5452
      9 O         -12.7554    2.0234   -3.0067 O.co2   1  LIG1       -0.5452
     10 N          -7.3303    2.4787   -0.9392 N.am    1  LIG1       -0.2815
     11 C          -6.7272   -0.0497   -7.4489 C.3     1  LIG1       -0.0160
     12 C          -5.8765    1.0289   -8.2170 C.3     1  LIG1       -0.0256
     13 C          -5.7094   -1.2625   -6.9989 C.3     1  LIG1        0.0318
     14 C          -6.5231    2.4752   -8.4328 C.3     1  LIG1       -0.0243
     15 C          -7.0930    2.9466   -7.0484 C.3     1  LIG1       -0.0235
     16 C          -7.4767    0.5887   -6.2470 C.3     1  LIG1       -0.0461
     17 C          -4.9208   -1.7776   -8.2398 C.2     1  LIG1       -0.0596
     18 C          -4.2731   -3.1727   -8.1131 C.3     1  LIG1       -0.0080
     19 C          -8.1416    1.9348   -6.5448 C.3     1  LIG1       -0.0483
     20 C          -6.5379   -2.4102   -6.3440 C.3     1  LIG1       -0.0392
     21 C          -5.2641    0.4057   -9.4920 C.3     1  LIG1       -0.0306
     22 C          -5.2428   -4.2476   -7.5710 C.3     1  LIG1        0.0167
     23 C          -7.5268    4.4487   -6.9274 C.3     1  LIG1        0.0267
     24 C          -5.3836    3.4617   -8.8200 C.3     1  LIG1       -0.0404
     25 C          -5.8192   -3.7560   -6.2217 C.3     1  LIG1       -0.0408
     26 C          -7.8428   -0.6278   -8.3849 C.3     1  LIG1       -0.0584
     27 C          -4.7491   -0.9929   -9.3235 C.2     1  LIG1       -0.0835
     28 C          -4.5519   -0.8463   -6.0066 C.3     1  LIG1        0.1025
     29 C          -7.5741    2.5053   -9.5695 C.3     1  LIG1       -0.0590
     30 C          -3.4450   -3.6661   -9.3291 C.3     1  LIG1       -0.0405
     31 C          -4.4677   -5.5654   -7.3079 C.3     1  LIG1       -0.0412
     32 C          -5.8066    4.9221   -8.8469 C.3     1  LIG1        0.0069
     33 C          -2.7152   -5.0106   -9.0941 C.3     1  LIG1       -0.0343
     34 C          -6.4589    5.3604   -7.5590 C.2     1  LIG1        0.1392
     35 C          -3.6914   -6.0598   -8.5297 C.3     1  LIG1       -0.0470
     36 C          -8.8850    4.7815   -7.5605 C.3     1  LIG1       -0.0528
     37 C          -7.6191    4.8355   -5.4276 C.3     1  LIG1       -0.0528
     38 C          -6.4302   -4.6737   -8.4988 C.2     1  LIG1        0.0485
     39 C          -2.1607   -5.5182  -10.4395 C.3     1  LIG1       -0.0598
     40 C          -1.5181   -4.8172   -8.1401 C.3     1  LIG1       -0.0598
     41 C          -4.4997   -0.5899   -3.6375 C.2     1  LIG1        0.3320
     42 C          -4.6642    0.4249   -2.5737 C.2     1  LIG1        0.0231
     43 C          -4.9858    1.7071   -2.8065 C.2     1  LIG1       -0.0460
     44 C          -4.9609    2.7182   -1.7429 C.ar    1  LIG1       -0.0001
     45 C          -6.0212    3.0040   -0.8615 C.ar    1  LIG1        0.0411
     46 C          -3.7196    3.3605   -1.5577 C.ar    1  LIG1       -0.0113
     47 C          -5.7908    3.8759    0.2187 C.ar    1  LIG1       -0.0364
     48 C          -3.5337    4.2520   -0.5065 C.ar    1  LIG1        0.1175
     49 C          -4.5575    4.5067    0.3896 C.ar    1  LIG1       -0.0184
     50 C          -8.0349    2.1844   -2.0919 C.2     1  LIG1        0.2411
     51 C          -9.4261    1.7872   -1.7561 C.2     1  LIG1        0.0021
     52 C         -10.4499    2.0253   -2.5878 C.2     1  LIG1       -0.0344
     53 C         -11.8784    1.7395   -2.1445 C.2     1  LIG1        0.0647
     54 H          -1.7586    4.6600   -1.0589 H       1  LIG1        0.2921
     55 H          -7.9110    2.5981   -0.1189 H       1  LIG1        0.1551
     56 H          -5.0232    1.2368   -7.5568 H       1  LIG1        0.0315
     57 H          -6.2406    2.8642   -6.3527 H       1  LIG1        0.0315
     58 H          -6.8035    0.7778   -5.4167 H       1  LIG1        0.0271
     59 H          -8.2343   -0.1010   -5.8549 H       1  LIG1        0.0271
     60 H          -3.5132   -3.0306   -7.3327 H       1  LIG1        0.0355
     61 H          -8.9667    1.8073   -7.2499 H       1  LIG1        0.0269
     62 H          -8.6063    2.2844   -5.6198 H       1  LIG1        0.0269
     63 H          -7.4495   -2.6114   -6.9110 H       1  LIG1        0.0275
     64 H          -6.8705   -2.1006   -5.3455 H       1  LIG1        0.0275
     65 H          -5.9881    0.3714  -10.3102 H       1  LIG1        0.0310
     66 H          -4.4283    1.0263   -9.8338 H       1  LIG1        0.0310
     67 H          -4.9761    3.2071   -9.8055 H       1  LIG1        0.0275
     68 H          -4.5555    3.3616   -8.1054 H       1  LIG1        0.0275
     69 H          -6.5222   -4.4875   -5.8028 H       1  LIG1        0.0275
     70 H          -5.0166   -3.6711   -5.4787 H       1  LIG1        0.0275
     71 H          -8.3961    0.1463   -8.9099 H       1  LIG1        0.0235
     72 H          -8.6003   -1.1822   -7.8205 H       1  LIG1        0.0235
     73 H          -7.4540   -1.3072   -9.1479 H       1  LIG1        0.0235
     74 H          -4.2186   -1.3751  -10.1904 H       1  LIG1        0.0572
     75 H          -3.9537   -1.7198   -5.7306 H       1  LIG1        0.0706
     76 H          -3.8442   -0.1826   -6.5180 H       1  LIG1        0.0706
     77 H          -8.5477    2.1169   -9.2726 H       1  LIG1        0.0235
     78 H          -7.2493    1.9519  -10.4526 H       1  LIG1        0.0235
     79 H          -7.7668    3.5133   -9.9389 H       1  LIG1        0.0235
     80 H          -2.6912   -2.9094   -9.5866 H       1  LIG1        0.0276
     81 H          -4.0902   -3.7554  -10.2106 H       1  LIG1        0.0276
     82 H          -5.1422   -6.3657   -6.9770 H       1  LIG1        0.0274
     83 H          -3.7668   -5.4203   -6.4759 H       1  LIG1        0.0274
     84 H          -6.4881    5.1444   -9.6724 H       1  LIG1        0.0342
     85 H          -4.9133    5.5390   -9.0030 H       1  LIG1        0.0342
     86 H          -4.4052   -6.3583   -9.3082 H       1  LIG1        0.0271
     87 H          -3.1456   -6.9723   -8.2573 H       1  LIG1        0.0271
     88 H          -8.8856    4.6837   -8.6461 H       1  LIG1        0.0239
     89 H          -9.1603    5.8242   -7.3570 H       1  LIG1        0.0239
     90 H          -9.6855    4.1524   -7.1585 H       1  LIG1        0.0239
     91 H          -6.6801    4.6220   -4.9037 H       1  LIG1        0.0239
     92 H          -8.4276    4.3061   -4.9159 H       1  LIG1        0.0239
     93 H          -7.8198    5.9060   -5.2979 H       1  LIG1        0.0239
     94 H          -2.9653   -5.6809  -11.1654 H       1  LIG1        0.0235
     95 H          -1.6290   -6.4684  -10.3151 H       1  LIG1        0.0235
     96 H          -1.4604   -4.7971  -10.8760 H       1  LIG1        0.0235
     97 H          -1.8194   -4.4595   -7.1517 H       1  LIG1        0.0235
     98 H          -0.8066   -4.0892   -8.5467 H       1  LIG1        0.0235
     99 H          -0.9776   -5.7594   -7.9939 H       1  LIG1        0.0235
    100 H          -4.4111    0.0733   -1.5803 H       1  LIG1        0.0689
    101 H          -5.2215    2.0759   -3.8013 H       1  LIG1        0.0626
    102 H          -2.9009    3.1389   -2.2376 H       1  LIG1        0.0660
    103 H          -6.5905    4.1094    0.9177 H       1  LIG1        0.0637
    104 H          -4.4068    5.2017    1.2097 H       1  LIG1        0.0655
    105 H          -9.6062    1.3429   -0.7828 H       1  LIG1        0.0670
    106 H         -10.2972    2.4703   -3.5652 H       1  LIG1        0.0637
@<TRIPOS>BOND
     1     1    41    1
     2     1    28    1
     3     2    34    2
     4     3    38   ar
     5     4    38   ar
     6     5    41    2
     7     6    48    1
     8     7    50    2
     9     8    53   ar
    10     9    53   ar
    11    10    45    1
    12    10    50   am
    13    11    16    1
    14    11    12    1
    15    11    26    1
    16    11    13    1
    17    12    14    1
    18    13    20    1
    19    13    17    1
    20    13    28    1
    21    14    15    1
    22    14    24    1
    23    14    29    1
    24    15    19    1
    25    15    23    1
    26    16    19    1
    27    17    18    1
    28    17    27    2
    29    18    30    1
    30    18    22    1
    31    20    25    1
    32    21    27    1
    33    21    12    1
    34    22    31    1
    35    22    25    1
    36    22    38    1
    37    23    34    1
    38    23    37    1
    39    23    36    1
    40    24    32    1
    41    30    33    1
    42    31    35    1
    43    32    34    1
    44    33    35    1
    45    33    40    1
    46    33    39    1
    47    41    42    1
    48    42    43    2
    49    43    44    1
    50    44    46   ar
    51    44    45   ar
    52    45    47   ar
    53    46    48   ar
    54    47    49   ar
    55    48    49   ar
    56    50    51    1
    57    51    52    2
    58    52    53    1
    59     6    54    1
    60    10    55    1
    61    12    56    1
    62    15    57    1
    63    16    58    1
    64    16    59    1
    65    18    60    1
    66    19    61    1
    67    19    62    1
    68    20    63    1
    69    20    64    1
    70    21    65    1
    71    21    66    1
    72    24    67    1
    73    24    68    1
    74    25    69    1
    75    25    70    1
    76    26    71    1
    77    26    72    1
    78    26    73    1
    79    27    74    1
    80    28    75    1
    81    28    76    1
    82    29    77    1
    83    29    78    1
    84    29    79    1
    85    30    80    1
    86    30    81    1
    87    31    82    1
    88    31    83    1
    89    32    84    1
    90    32    85    1
    91    35    86    1
    92    35    87    1
    93    36    88    1
    94    36    89    1
    95    36    90    1
    96    37    91    1
    97    37    92    1
    98    37    93    1
    99    39    94    1
   100    39    95    1
   101    39    96    1
   102    40    97    1
   103    40    98    1
   104    40    99    1
   105    42   100    1
   106    43   101    1
   107    46   102    1
   108    47   103    1
   109    49   104    1
   110    51   105    1
   111    52   106    1
@<TRIPOS>MOLECULE
11672244
 106 111 0 0 0
SMALL
GASTEIGER

@<TRIPOS>ATOM
      1 O          -4.7534   -0.0538   -4.8710 O.3     1  LIG1       -0.4607
      2 O          -6.2601    6.5587   -7.1350 O.2     1  LIG1       -0.2968
      3 O          -6.6140   -4.1219   -9.6284 O.co2   1  LIG1       -0.5492
      4 O          -7.4990   -5.2609   -7.8772 O.co2   1  LIG1       -0.5492
      5 O          -4.6387   -1.9178   -3.5137 O.2     1  LIG1       -0.2456
      6 O          -2.8541    3.1558    1.6912 O.3     1  LIG1       -0.5067
      7 O           1.8283   -0.6888   -0.7973 O.2     1  LIG1       -0.2705
      8 O           2.0839   -3.1031   -5.1299 O.co2   1  LIG1       -0.5452
      9 O           2.5621   -4.8984   -3.7945 O.co2   1  LIG1       -0.5452
     10 N          -0.3078   -0.4641   -1.7143 N.am    1  LIG1       -0.2815
     11 C          -6.7237    0.0040   -7.3886 C.3     1  LIG1       -0.0160
     12 C          -5.8908    1.0731   -8.1866 C.3     1  LIG1       -0.0256
     13 C          -5.7128   -1.2190   -6.9752 C.3     1  LIG1        0.0318
     14 C          -6.5417    2.5188   -8.3883 C.3     1  LIG1       -0.0243
     15 C          -7.0661    3.0023   -6.9898 C.3     1  LIG1       -0.0235
     16 C          -7.4069    0.6458   -6.1521 C.3     1  LIG1       -0.0461
     17 C          -4.9924   -1.7537   -8.2451 C.2     1  LIG1       -0.0596
     18 C          -4.3720   -3.1625   -8.1369 C.3     1  LIG1       -0.0080
     19 C          -8.0813    1.9916   -6.4189 C.3     1  LIG1       -0.0483
     20 C          -6.5315   -2.3444   -6.2717 C.3     1  LIG1       -0.0392
     21 C          -5.3134    0.4432   -9.4770 C.3     1  LIG1       -0.0306
     22 C          -5.3565   -4.2110   -7.5701 C.3     1  LIG1        0.0167
     23 C          -7.5199    4.4982   -6.8857 C.3     1  LIG1        0.0267
     24 C          -5.4124    3.5027   -8.8137 C.3     1  LIG1       -0.0404
     25 C          -5.8461   -3.7096   -6.1898 C.3     1  LIG1       -0.0408
     26 C          -7.8839   -0.5535   -8.2822 C.3     1  LIG1       -0.0584
     27 C          -4.8348   -0.9701   -9.3314 C.2     1  LIG1       -0.0835
     28 C          -4.4948   -0.8126   -6.0584 C.3     1  LIG1        0.1025
     29 C          -7.6313    2.5446   -9.4882 C.3     1  LIG1       -0.0590
     30 C          -3.5794   -3.6720   -9.3667 C.3     1  LIG1       -0.0405
     31 C          -4.6298   -5.5630   -7.3498 C.3     1  LIG1       -0.0412
     32 C          -5.8299    4.9660   -8.8371 C.3     1  LIG1        0.0069
     33 C          -2.8651   -5.0237   -9.1305 C.3     1  LIG1       -0.0343
     34 C          -6.4765    5.4150   -7.5488 C.2     1  LIG1        0.1392
     35 C          -3.8681   -6.0556   -8.5813 C.3     1  LIG1       -0.0470
     36 C          -8.8923    4.8061   -7.5023 C.3     1  LIG1       -0.0528
     37 C          -7.5928    4.9042   -5.3889 C.3     1  LIG1       -0.0528
     38 C          -6.6082   -4.5587   -8.4433 C.2     1  LIG1        0.0485
     39 C          -2.3045   -5.5334  -10.4722 C.3     1  LIG1       -0.0598
     40 C          -1.6716   -4.8518   -8.1663 C.3     1  LIG1       -0.0598
     41 C          -4.5384   -0.7202   -3.7118 C.2     1  LIG1        0.3320
     42 C          -3.9476    0.2381   -2.7549 C.2     1  LIG1        0.0231
     43 C          -3.1742   -0.2582   -1.7775 C.2     1  LIG1       -0.0460
     44 C          -2.3593    0.5764   -0.8830 C.ar    1  LIG1       -0.0001
     45 C          -0.9528    0.4213   -0.8157 C.ar    1  LIG1        0.0411
     46 C          -3.0052    1.4944   -0.0381 C.ar    1  LIG1       -0.0113
     47 C          -0.2329    1.1927    0.1052 C.ar    1  LIG1       -0.0364
     48 C          -2.2602    2.2523    0.8594 C.ar    1  LIG1        0.1175
     49 C          -0.8836    2.1063    0.9382 C.ar    1  LIG1       -0.0184
     50 C           1.0048   -0.8891   -1.6786 C.2     1  LIG1        0.2411
     51 C           1.3341   -1.6793   -2.8858 C.2     1  LIG1        0.0021
     52 C           1.8322   -2.9194   -2.7835 C.2     1  LIG1       -0.0344
     53 C           2.1902   -3.7150   -4.0315 C.2     1  LIG1        0.0647
     54 H          -3.8114    3.1323    1.5315 H       1  LIG1        0.2921
     55 H          -0.8741   -0.8780   -2.4459 H       1  LIG1        0.1551
     56 H          -5.0187    1.2818   -7.5517 H       1  LIG1        0.0315
     57 H          -6.1871    2.9441   -6.3256 H       1  LIG1        0.0315
     58 H          -6.6914    0.8289   -5.3538 H       1  LIG1        0.0271
     59 H          -8.1497   -0.0399   -5.7258 H       1  LIG1        0.0271
     60 H          -3.5921   -3.0383   -7.3741 H       1  LIG1        0.0355
     61 H          -8.9467    1.8630   -7.0744 H       1  LIG1        0.0269
     62 H          -8.4839    2.3414   -5.4635 H       1  LIG1        0.0269
     63 H          -7.4791   -2.5209   -6.7848 H       1  LIG1        0.0275
     64 H          -6.8037   -2.0265   -5.2583 H       1  LIG1        0.0275
     65 H          -6.0481    0.4343  -10.2854 H       1  LIG1        0.0310
     66 H          -4.4671    1.0460   -9.8253 H       1  LIG1        0.0310
     67 H          -5.0319    3.2402   -9.8079 H       1  LIG1        0.0275
     68 H          -4.5652    3.4047   -8.1215 H       1  LIG1        0.0275
     69 H          -6.5431   -4.4235   -5.7322 H       1  LIG1        0.0275
     70 H          -5.0000   -3.6508   -5.4951 H       1  LIG1        0.0275
     71 H          -8.4556    0.2316   -8.7699 H       1  LIG1        0.0235
     72 H          -8.6209   -1.1108   -7.6945 H       1  LIG1        0.0235
     73 H          -7.5339   -1.2225   -9.0727 H       1  LIG1        0.0235
     74 H          -4.3363   -1.3643  -10.2126 H       1  LIG1        0.0572
     75 H          -3.8935   -1.6909   -5.7960 H       1  LIG1        0.0706
     76 H          -3.7965   -0.1893   -6.6312 H       1  LIG1        0.0706
     77 H          -8.6085    2.2150   -9.1347 H       1  LIG1        0.0235
     78 H          -7.3700    1.9369  -10.3558 H       1  LIG1        0.0235
     79 H          -7.7916    3.5425   -9.8993 H       1  LIG1        0.0235
     80 H          -2.8202   -2.9283   -9.6451 H       1  LIG1        0.0276
     81 H          -4.2462   -3.7610  -10.2322 H       1  LIG1        0.0276
     82 H          -5.3349   -6.3458   -7.0418 H       1  LIG1        0.0274
     83 H          -3.9234   -5.4691   -6.5148 H       1  LIG1        0.0274
     84 H          -6.5154    5.1868   -9.6599 H       1  LIG1        0.0342
     85 H          -4.9353    5.5793   -8.9994 H       1  LIG1        0.0342
     86 H          -4.5922   -6.3197   -9.3625 H       1  LIG1        0.0271
     87 H          -3.3453   -6.9862   -8.3253 H       1  LIG1        0.0271
     88 H          -8.9013    4.7204   -8.5891 H       1  LIG1        0.0239
     89 H          -9.1887    5.8407   -7.2876 H       1  LIG1        0.0239
     90 H          -9.6753    4.1565   -7.0989 H       1  LIG1        0.0239
     91 H          -6.6380    4.7219   -4.8824 H       1  LIG1        0.0239
     92 H          -8.3750    4.3619   -4.8499 H       1  LIG1        0.0239
     93 H          -7.8184    5.9710   -5.2707 H       1  LIG1        0.0239
     94 H          -3.1036   -5.6841  -11.2063 H       1  LIG1        0.0235
     95 H          -1.7844   -6.4897  -10.3455 H       1  LIG1        0.0235
     96 H          -1.5910   -4.8192  -10.8989 H       1  LIG1        0.0235
     97 H          -1.9730   -4.5067   -7.1735 H       1  LIG1        0.0235
     98 H          -0.9528   -4.1231   -8.5589 H       1  LIG1        0.0235
     99 H          -1.1381   -5.7995   -8.0302 H       1  LIG1        0.0235
    100 H          -4.0527    1.2950   -2.9585 H       1  LIG1        0.0689
    101 H          -3.0495   -1.3344   -1.6536 H       1  LIG1        0.0626
    102 H          -4.0854    1.5954   -0.0800 H       1  LIG1        0.0660
    103 H           0.8480    1.1194    0.1810 H       1  LIG1        0.0637
    104 H          -0.3073    2.7007    1.6409 H       1  LIG1        0.0655
    105 H           1.1608   -1.2153   -3.8502 H       1  LIG1        0.0670
    106 H           1.9956   -3.3901   -1.8207 H       1  LIG1        0.0637
@<TRIPOS>BOND
     1     1    41    1
     2     1    28    1
     3     2    34    2
     4     3    38   ar
     5     4    38   ar
     6     5    41    2
     7     6    48    1
     8     7    50    2
     9     8    53   ar
    10     9    53   ar
    11    10    45    1
    12    10    50   am
    13    11    16    1
    14    11    12    1
    15    11    26    1
    16    11    13    1
    17    12    14    1
    18    13    20    1
    19    13    17    1
    20    13    28    1
    21    14    15    1
    22    14    24    1
    23    14    29    1
    24    15    19    1
    25    15    23    1
    26    16    19    1
    27    17    18    1
    28    17    27    2
    29    18    30    1
    30    18    22    1
    31    20    25    1
    32    21    27    1
    33    21    12    1
    34    22    31    1
    35    22    25    1
    36    22    38    1
    37    23    34    1
    38    23    37    1
    39    23    36    1
    40    24    32    1
    41    30    33    1
    42    31    35    1
    43    32    34    1
    44    33    35    1
    45    33    40    1
    46    33    39    1
    47    41    42    1
    48    42    43    2
    49    43    44    1
    50    44    46   ar
    51    44    45   ar
    52    45    47   ar
    53    46    48   ar
    54    47    49   ar
    55    48    49   ar
    56    50    51    1
    57    51    52    2
    58    52    53    1
    59     6    54    1
    60    10    55    1
    61    12    56    1
    62    15    57    1
    63    16    58    1
    64    16    59    1
    65    18    60    1
    66    19    61    1
    67    19    62    1
    68    20    63    1
    69    20    64    1
    70    21    65    1
    71    21    66    1
    72    24    67    1
    73    24    68    1
    74    25    69    1
    75    25    70    1
    76    26    71    1
    77    26    72    1
    78    26    73    1
    79    27    74    1
    80    28    75    1
    81    28    76    1
    82    29    77    1
    83    29    78    1
    84    29    79    1
    85    30    80    1
    86    30    81    1
    87    31    82    1
    88    31    83    1
    89    32    84    1
    90    32    85    1
    91    35    86    1
    92    35    87    1
    93    36    88    1
    94    36    89    1
    95    36    90    1
    96    37    91    1
    97    37    92    1
    98    37    93    1
    99    39    94    1
   100    39    95    1
   101    39    96    1
   102    40    97    1
   103    40    98    1
   104    40    99    1
   105    42   100    1
   106    43   101    1
   107    46   102    1
   108    47   103    1
   109    49   104    1
   110    51   105    1
   111    52   106    1
@<TRIPOS>MOLECULE
11672244
 106 111 0 0 0
SMALL
GASTEIGER

@<TRIPOS>ATOM
      1 O          -4.9256   -0.1463   -4.7549 O.3     1  LIG1       -0.4607
      2 O          -6.1194    6.4778   -7.1084 O.2     1  LIG1       -0.2968
      3 O          -6.4463   -4.0442   -9.6544 O.co2   1  LIG1       -0.5492
      4 O          -7.3788   -5.2860   -7.9965 O.co2   1  LIG1       -0.5492
      5 O          -4.0093   -1.8693   -3.5078 O.2     1  LIG1       -0.2456
      6 O          -0.9102    3.0796    0.5702 O.3     1  LIG1       -0.5067
      7 O          -6.7260   -0.0975   -1.2670 O.2     1  LIG1       -0.2705
      8 O         -11.5627    1.8110   -0.7498 O.co2   1  LIG1       -0.5452
      9 O         -11.1033    0.2635    0.8721 O.co2   1  LIG1       -0.5452
     10 N          -6.2192    1.2955    0.5589 N.am    1  LIG1       -0.2815
     11 C          -6.7525   -0.0119   -7.4067 C.3     1  LIG1       -0.0160
     12 C          -5.9158    1.0702   -8.1886 C.3     1  LIG1       -0.0256
     13 C          -5.7226   -1.2101   -6.9474 C.3     1  LIG1        0.0318
     14 C          -6.5826    2.5008   -8.4222 C.3     1  LIG1       -0.0243
     15 C          -7.1095    2.9862   -7.0244 C.3     1  LIG1       -0.0235
     16 C          -7.4978    0.6271   -6.2012 C.3     1  LIG1       -0.0461
     17 C          -4.9313   -1.7260   -8.1840 C.2     1  LIG1       -0.0596
     18 C          -4.2912   -3.1241   -8.0517 C.3     1  LIG1       -0.0080
     19 C          -8.1489    1.9872   -6.4774 C.3     1  LIG1       -0.0483
     20 C          -6.5302   -2.3509   -6.2522 C.3     1  LIG1       -0.0392
     21 C          -5.2792    0.4485   -9.4508 C.3     1  LIG1       -0.0306
     22 C          -5.2915   -4.1831   -7.5397 C.3     1  LIG1        0.0167
     23 C          -7.5182    4.4938   -6.8938 C.3     1  LIG1        0.0267
     24 C          -5.4699    3.4900   -8.8783 C.3     1  LIG1       -0.0404
     25 C          -5.8299   -3.7074   -6.1696 C.3     1  LIG1       -0.0408
     26 C          -7.8651   -0.6091   -8.3352 C.3     1  LIG1       -0.0584
     27 C          -4.7547   -0.9448   -9.2691 C.2     1  LIG1       -0.0835
     28 C          -4.5567   -0.7653   -5.9846 C.3     1  LIG1        0.1025
     29 C          -7.6636    2.4905   -9.5294 C.3     1  LIG1       -0.0590
     30 C          -3.4403   -3.6122   -9.2509 C.3     1  LIG1       -0.0405
     31 C          -4.5775   -5.5415   -7.3193 C.3     1  LIG1       -0.0412
     32 C          -5.9084    4.9456   -8.9018 C.3     1  LIG1        0.0069
     33 C          -2.7547   -4.9799   -9.0238 C.3     1  LIG1       -0.0343
     34 C          -6.4527    5.3801   -7.5642 C.2     1  LIG1        0.1392
     35 C          -3.7902   -6.0125   -8.5421 C.3     1  LIG1       -0.0470
     36 C          -8.8882    4.8517   -7.4844 C.3     1  LIG1       -0.0528
     37 C          -7.5556    4.8833   -5.3920 C.3     1  LIG1       -0.0528
     38 C          -6.4927   -4.5210   -8.4847 C.2     1  LIG1        0.0485
     39 C          -2.1520   -5.4591  -10.3580 C.3     1  LIG1       -0.0598
     40 C          -1.5994   -4.8561   -8.0082 C.3     1  LIG1       -0.0598
     41 C          -4.4681   -0.7438   -3.6268 C.2     1  LIG1        0.3320
     42 C          -4.3754    0.3055   -2.5960 C.2     1  LIG1        0.0231
     43 C          -4.0429   -0.0065   -1.3369 C.2     1  LIG1       -0.0460
     44 C          -3.8562    1.0577   -0.3567 C.ar    1  LIG1       -0.0001
     45 C          -4.8429    1.6306    0.4701 C.ar    1  LIG1        0.0411
     46 C          -2.5286    1.5431   -0.3092 C.ar    1  LIG1       -0.0113
     47 C          -4.4456    2.6757    1.3331 C.ar    1  LIG1       -0.0364
     48 C          -2.1816    2.5882    0.5369 C.ar    1  LIG1        0.1175
     49 C          -3.1320    3.1586    1.3586 C.ar    1  LIG1       -0.0184
     50 C          -7.0146    0.5057   -0.2527 C.2     1  LIG1        0.2411
     51 C          -8.4120    0.4929    0.2271 C.2     1  LIG1        0.0021
     52 C          -9.3681    1.0355   -0.5398 C.2     1  LIG1       -0.0344
     53 C         -10.8216    1.0178   -0.1014 C.2     1  LIG1        0.0647
     54 H          -0.3845    2.6074   -0.0978 H       1  LIG1        0.2921
     55 H          -6.7451    1.7859    1.2702 H       1  LIG1        0.1551
     56 H          -5.0703    1.3042   -7.5285 H       1  LIG1        0.0315
     57 H          -6.2375    2.8985   -6.3543 H       1  LIG1        0.0315
     58 H          -6.8208    0.7921   -5.3654 H       1  LIG1        0.0271
     59 H          -8.2672   -0.0583   -5.8228 H       1  LIG1        0.0271
     60 H          -3.5451   -3.0008   -7.2554 H       1  LIG1        0.0355
     61 H          -9.0025    1.8761   -7.1517 H       1  LIG1        0.0269
     62 H          -8.5679    2.3416   -5.5306 H       1  LIG1        0.0269
     63 H          -7.4719   -2.5448   -6.7662 H       1  LIG1        0.0275
     64 H          -6.8129   -2.0398   -5.2385 H       1  LIG1        0.0275
     65 H          -5.9898    0.4117  -10.2807 H       1  LIG1        0.0310
     66 H          -4.4413    1.0738   -9.7788 H       1  LIG1        0.0310
     67 H          -5.1126    3.2262   -9.8809 H       1  LIG1        0.0275
     68 H          -4.6059    3.4044   -8.2061 H       1  LIG1        0.0275
     69 H          -6.5324   -4.4374   -5.7474 H       1  LIG1        0.0275
     70 H          -5.0079   -3.6429   -5.4457 H       1  LIG1        0.0275
     71 H          -8.5211    0.1511   -8.7485 H       1  LIG1        0.0235
     72 H          -8.5435   -1.2750   -7.7956 H       1  LIG1        0.0235
     73 H          -7.4636   -1.1757   -9.1790 H       1  LIG1        0.0235
     74 H          -4.2148   -1.3291  -10.1288 H       1  LIG1        0.0572
     75 H          -3.8858   -1.6074   -5.7832 H       1  LIG1        0.0706
     76 H          -3.9097   -0.0366   -6.4882 H       1  LIG1        0.0706
     77 H          -8.6051    2.0417   -9.2214 H       1  LIG1        0.0235
     78 H          -7.3229    1.9747  -10.4308 H       1  LIG1        0.0235
     79 H          -7.9268    3.4920   -9.8715 H       1  LIG1        0.0235
     80 H          -2.6612   -2.8679   -9.4679 H       1  LIG1        0.0276
     81 H          -4.0625   -3.6682  -10.1515 H       1  LIG1        0.0276
     82 H          -5.2934   -6.3266   -7.0432 H       1  LIG1        0.0274
     83 H          -3.8949   -5.4657   -6.4634 H       1  LIG1        0.0274
     84 H          -6.6615    5.1486   -9.6678 H       1  LIG1        0.0342
     85 H          -5.0405    5.5712   -9.1412 H       1  LIG1        0.0342
     86 H          -4.4932   -6.2385   -9.3539 H       1  LIG1        0.0271
     87 H          -3.2929   -6.9604   -8.3004 H       1  LIG1        0.0271
     88 H          -8.9398    4.7099   -8.5639 H       1  LIG1        0.0239
     89 H          -9.1153    5.9119   -7.3139 H       1  LIG1        0.0239
     90 H          -9.6929    4.2695   -7.0246 H       1  LIG1        0.0239
     91 H          -6.5986    4.6680   -4.9024 H       1  LIG1        0.0239
     92 H          -8.3433    4.3549   -4.8470 H       1  LIG1        0.0239
     93 H          -7.7480    5.9550   -5.2591 H       1  LIG1        0.0239
     94 H          -2.9239   -5.5621  -11.1287 H       1  LIG1        0.0235
     95 H          -1.6633   -6.4332  -10.2444 H       1  LIG1        0.0235
     96 H          -1.4036   -4.7500  -10.7300 H       1  LIG1        0.0235
     97 H          -1.9338   -4.5149   -7.0245 H       1  LIG1        0.0235
     98 H          -0.8432   -4.1443   -8.3583 H       1  LIG1        0.0235
     99 H          -1.1014   -5.8219   -7.8638 H       1  LIG1        0.0235
    100 H          -4.5923    1.3197   -2.9012 H       1  LIG1        0.0689
    101 H          -3.8709   -1.0333   -1.0195 H       1  LIG1        0.0626
    102 H          -1.7774    1.0949   -0.9562 H       1  LIG1        0.0660
    103 H          -5.1727    3.1553    1.9851 H       1  LIG1        0.0637
    104 H          -2.8638    3.9822    2.0132 H       1  LIG1        0.0655
    105 H          -8.6247    0.0194    1.1768 H       1  LIG1        0.0670
    106 H          -9.1358    1.4981   -1.4933 H       1  LIG1        0.0637
@<TRIPOS>BOND
     1     1    41    1
     2     1    28    1
     3     2    34    2
     4     3    38   ar
     5     4    38   ar
     6     5    41    2
     7     6    48    1
     8     7    50    2
     9     8    53   ar
    10     9    53   ar
    11    10    45    1
    12    10    50   am
    13    11    16    1
    14    11    12    1
    15    11    26    1
    16    11    13    1
    17    12    14    1
    18    13    20    1
    19    13    17    1
    20    13    28    1
    21    14    15    1
    22    14    24    1
    23    14    29    1
    24    15    19    1
    25    15    23    1
    26    16    19    1
    27    17    18    1
    28    17    27    2
    29    18    30    1
    30    18    22    1
    31    20    25    1
    32    21    27    1
    33    21    12    1
    34    22    31    1
    35    22    25    1
    36    22    38    1
    37    23    34    1
    38    23    37    1
    39    23    36    1
    40    24    32    1
    41    30    33    1
    42    31    35    1
    43    32    34    1
    44    33    35    1
    45    33    40    1
    46    33    39    1
    47    41    42    1
    48    42    43    2
    49    43    44    1
    50    44    46   ar
    51    44    45   ar
    52    45    47   ar
    53    46    48   ar
    54    47    49   ar
    55    48    49   ar
    56    50    51    1
    57    51    52    2
    58    52    53    1
    59     6    54    1
    60    10    55    1
    61    12    56    1
    62    15    57    1
    63    16    58    1
    64    16    59    1
    65    18    60    1
    66    19    61    1
    67    19    62    1
    68    20    63    1
    69    20    64    1
    70    21    65    1
    71    21    66    1
    72    24    67    1
    73    24    68    1
    74    25    69    1
    75    25    70    1
    76    26    71    1
    77    26    72    1
    78    26    73    1
    79    27    74    1
    80    28    75    1
    81    28    76    1
    82    29    77    1
    83    29    78    1
    84    29    79    1
    85    30    80    1
    86    30    81    1
    87    31    82    1
    88    31    83    1
    89    32    84    1
    90    32    85    1
    91    35    86    1
    92    35    87    1
    93    36    88    1
    94    36    89    1
    95    36    90    1
    96    37    91    1
    97    37    92    1
    98    37    93    1
    99    39    94    1
   100    39    95    1
   101    39    96    1
   102    40    97    1
   103    40    98    1
   104    40    99    1
   105    42   100    1
   106    43   101    1
   107    46   102    1
   108    47   103    1
   109    49   104    1
   110    51   105    1
   111    52   106    1
@<TRIPOS>MOLECULE
11672244
 106 111 0 0 0
SMALL
GASTEIGER

@<TRIPOS>ATOM
      1 O          -5.0159   -0.1658   -4.7577 O.3     1  LIG1       -0.4607
      2 O          -6.3787    6.6013   -7.2050 O.2     1  LIG1       -0.2968
      3 O          -6.5622   -4.1361   -9.6363 O.co2   1  LIG1       -0.5492
      4 O          -7.4459   -5.3341   -7.9239 O.co2   1  LIG1       -0.5492
      5 O          -4.4571   -1.9899   -3.4555 O.2     1  LIG1       -0.2456
      6 O          -5.6966    2.5865    2.2886 O.3     1  LIG1       -0.5067
      7 O          -1.9600    1.5123   -2.8915 O.2     1  LIG1       -0.2705
      8 O           2.9042    0.1237   -2.9466 O.co2   1  LIG1       -0.5452
      9 O           2.5387   -2.0260   -2.2604 O.co2   1  LIG1       -0.5452
     10 N          -1.3015    0.9602   -0.7186 N.am    1  LIG1       -0.2815
     11 C          -6.7685    0.0041   -7.4005 C.3     1  LIG1       -0.0160
     12 C          -5.9130    1.0757   -8.1741 C.3     1  LIG1       -0.0256
     13 C          -5.7653   -1.2235   -6.9590 C.3     1  LIG1        0.0318
     14 C          -6.5524    2.5245   -8.3917 C.3     1  LIG1       -0.0243
     15 C          -7.1146    3.0066   -7.0098 C.3     1  LIG1       -0.0235
     16 C          -7.4904    0.6524   -6.1882 C.3     1  LIG1       -0.0461
     17 C          -4.9918   -1.7432   -8.2039 C.2     1  LIG1       -0.0596
     18 C          -4.3641   -3.1487   -8.0862 C.3     1  LIG1       -0.0080
     19 C          -8.1541    1.9989   -6.4773 C.3     1  LIG1       -0.0483
     20 C          -6.6043   -2.3628   -6.3015 C.3     1  LIG1       -0.0392
     21 C          -5.3034    0.4485   -9.4486 C.3     1  LIG1       -0.0306
     22 C          -5.3521   -4.2105   -7.5488 C.3     1  LIG1        0.0167
     23 C          -7.5620    4.5042   -6.9100 C.3     1  LIG1        0.0267
     24 C          -5.4078    3.5056   -8.7788 C.3     1  LIG1       -0.0404
     25 C          -5.8987   -3.7159   -6.1882 C.3     1  LIG1       -0.0408
     26 C          -7.8997   -0.5574   -8.3261 C.3     1  LIG1       -0.0584
     27 C          -4.8114   -0.9574   -9.2850 C.2     1  LIG1       -0.0835
     28 C          -4.6079   -0.8129   -5.9686 C.3     1  LIG1        0.1025
     29 C          -7.6077    2.5580   -9.5235 C.3     1  LIG1       -0.0590
     30 C          -3.5469   -3.6481   -9.3058 C.3     1  LIG1       -0.0405
     31 C          -4.6061   -5.5480   -7.3051 C.3     1  LIG1       -0.0412
     32 C          -5.8245    4.9676   -8.8271 C.3     1  LIG1        0.0069
     33 C          -2.8317   -5.0004   -9.0736 C.3     1  LIG1       -0.0343
     34 C          -6.5297    5.4317   -7.5761 C.2     1  LIG1        0.1392
     35 C          -3.8288   -6.0396   -8.5270 C.3     1  LIG1       -0.0470
     36 C          -8.9388    4.8079   -7.5196 C.3     1  LIG1       -0.0528
     37 C          -7.6252    4.9116   -5.4127 C.3     1  LIG1       -0.0528
     38 C          -6.5706   -4.5882   -8.4568 C.2     1  LIG1        0.0485
     39 C          -2.2697   -5.5043  -10.4173 C.3     1  LIG1       -0.0598
     40 C          -1.6403   -4.8270   -8.1081 C.3     1  LIG1       -0.0598
     41 C          -4.7453   -0.8141   -3.6019 C.2     1  LIG1        0.3320
     42 C          -4.7700    0.1872   -2.5194 C.2     1  LIG1        0.0231
     43 C          -4.0074   -0.0465   -1.4417 C.2     1  LIG1       -0.0460
     44 C          -3.7714    0.9396   -0.3801 C.ar    1  LIG1       -0.0001
     45 C          -2.4647    1.3193   -0.0013 C.ar    1  LIG1        0.0411
     46 C          -4.8654    1.3743    0.3872 C.ar    1  LIG1       -0.0113
     47 C          -2.2760    2.0638    1.1715 C.ar    1  LIG1       -0.0364
     48 C          -4.6539    2.1558    1.5204 C.ar    1  LIG1        0.1175
     49 C          -3.3698    2.4955    1.9228 C.ar    1  LIG1       -0.0184
     50 C          -1.1667    1.0313   -2.0941 C.2     1  LIG1        0.2411
     51 C           0.1988    0.6427   -2.5263 C.2     1  LIG1        0.0021
     52 C           0.7748   -0.4981   -2.1282 C.2     1  LIG1       -0.0344
     53 C           2.2111   -0.8336   -2.5077 C.2     1  LIG1        0.0647
     54 H          -6.5198    2.2676    1.8831 H       1  LIG1        0.2921
     55 H          -0.4247    0.9407   -0.2111 H       1  LIG1        0.1551
     56 H          -5.0580    1.2821   -7.5164 H       1  LIG1        0.0315
     57 H          -6.2561    2.9396   -6.3200 H       1  LIG1        0.0315
     58 H          -6.7994    0.8508   -5.3736 H       1  LIG1        0.0271
     59 H          -8.2419   -0.0327   -5.7770 H       1  LIG1        0.0271
     60 H          -3.6011   -3.0227   -7.3062 H       1  LIG1        0.0355
     61 H          -8.9962    1.8727   -7.1627 H       1  LIG1        0.0269
     62 H          -8.5886    2.3505   -5.5363 H       1  LIG1        0.0269
     63 H          -7.5212   -2.5516   -6.8638 H       1  LIG1        0.0275
     64 H          -6.9314   -2.0542   -5.3013 H       1  LIG1        0.0275
     65 H          -6.0231    0.4281  -10.2706 H       1  LIG1        0.0310
     66 H          -4.4565    1.0580   -9.7833 H       1  LIG1        0.0310
     67 H          -4.9908    3.2391   -9.7571 H       1  LIG1        0.0275
     68 H          -4.5867    3.4113   -8.0555 H       1  LIG1        0.0275
     69 H          -6.6000   -4.4402   -5.7546 H       1  LIG1        0.0275
     70 H          -5.0797   -3.6411   -5.4634 H       1  LIG1        0.0275
     71 H          -8.4540    0.2243   -8.8382 H       1  LIG1        0.0235
     72 H          -8.6549   -1.1094   -7.7565 H       1  LIG1        0.0235
     73 H          -7.5249   -1.2333   -9.0993 H       1  LIG1        0.0235
     74 H          -4.2816   -1.3431  -10.1512 H       1  LIG1        0.0572
     75 H          -3.9697   -1.6705   -5.7313 H       1  LIG1        0.0706
     76 H          -3.9259   -0.1076   -6.4577 H       1  LIG1        0.0706
     77 H          -8.5859    2.1915   -9.2131 H       1  LIG1        0.0235
     78 H          -7.2998    1.9868  -10.4010 H       1  LIG1        0.0235
     79 H          -7.7846    3.5648   -9.9048 H       1  LIG1        0.0235
     80 H          -2.7849   -2.9000   -9.5649 H       1  LIG1        0.0276
     81 H          -4.1981   -3.7302  -10.1838 H       1  LIG1        0.0276
     82 H          -5.3008   -6.3392   -6.9936 H       1  LIG1        0.0274
     83 H          -3.9085   -5.4325   -6.4653 H       1  LIG1        0.0274
     84 H          -6.4722    5.1808   -9.6821 H       1  LIG1        0.0342
     85 H          -4.9235    5.5800   -8.9542 H       1  LIG1        0.0342
     86 H          -4.5427   -6.3162   -9.3132 H       1  LIG1        0.0271
     87 H          -3.2986   -6.9634   -8.2618 H       1  LIG1        0.0271
     88 H          -8.9603    4.6886   -8.6030 H       1  LIG1        0.0239
     89 H          -9.2236    5.8509   -7.3310 H       1  LIG1        0.0239
     90 H          -9.7233    4.1780   -7.0888 H       1  LIG1        0.0239
     91 H          -6.6602    4.7499   -4.9183 H       1  LIG1        0.0239
     92 H          -8.3879    4.3534   -4.8625 H       1  LIG1        0.0239
     93 H          -7.8702    5.9739   -5.2929 H       1  LIG1        0.0239
     94 H          -3.0686   -5.6545  -11.1516 H       1  LIG1        0.0235
     95 H          -1.7472   -6.4595  -10.2939 H       1  LIG1        0.0235
     96 H          -1.5584   -4.7865  -10.8420 H       1  LIG1        0.0235
     97 H          -1.9448   -4.4785   -7.1173 H       1  LIG1        0.0235
     98 H          -0.9202   -4.0999   -8.5012 H       1  LIG1        0.0235
     99 H          -1.1074   -5.7747   -7.9690 H       1  LIG1        0.0235
    100 H          -5.2775    1.1242   -2.6983 H       1  LIG1        0.0689
    101 H          -3.4290   -0.9661   -1.3618 H       1  LIG1        0.0626
    102 H          -5.8687    1.0629    0.1125 H       1  LIG1        0.0660
    103 H          -1.2754    2.3506    1.4861 H       1  LIG1        0.0637
    104 H          -3.2177    3.0968    2.8141 H       1  LIG1        0.0655
    105 H           0.7120    1.3471   -3.1786 H       1  LIG1        0.0670
    106 H           0.2405   -1.2323   -1.5336 H       1  LIG1        0.0637
@<TRIPOS>BOND
     1     1    41    1
     2     1    28    1
     3     2    34    2
     4     3    38   ar
     5     4    38   ar
     6     5    41    2
     7     6    48    1
     8     7    50    2
     9     8    53   ar
    10     9    53   ar
    11    10    45    1
    12    10    50   am
    13    11    16    1
    14    11    12    1
    15    11    26    1
    16    11    13    1
    17    12    14    1
    18    13    20    1
    19    13    17    1
    20    13    28    1
    21    14    15    1
    22    14    24    1
    23    14    29    1
    24    15    19    1
    25    15    23    1
    26    16    19    1
    27    17    18    1
    28    17    27    2
    29    18    30    1
    30    18    22    1
    31    20    25    1
    32    21    27    1
    33    21    12    1
    34    22    31    1
    35    22    25    1
    36    22    38    1
    37    23    34    1
    38    23    37    1
    39    23    36    1
    40    24    32    1
    41    30    33    1
    42    31    35    1
    43    32    34    1
    44    33    35    1
    45    33    40    1
    46    33    39    1
    47    41    42    1
    48    42    43    2
    49    43    44    1
    50    44    46   ar
    51    44    45   ar
    52    45    47   ar
    53    46    48   ar
    54    47    49   ar
    55    48    49   ar
    56    50    51    1
    57    51    52    2
    58    52    53    1
    59     6    54    1
    60    10    55    1
    61    12    56    1
    62    15    57    1
    63    16    58    1
    64    16    59    1
    65    18    60    1
    66    19    61    1
    67    19    62    1
    68    20    63    1
    69    20    64    1
    70    21    65    1
    71    21    66    1
    72    24    67    1
    73    24    68    1
    74    25    69    1
    75    25    70    1
    76    26    71    1
    77    26    72    1
    78    26    73    1
    79    27    74    1
    80    28    75    1
    81    28    76    1
    82    29    77    1
    83    29    78    1
    84    29    79    1
    85    30    80    1
    86    30    81    1
    87    31    82    1
    88    31    83    1
    89    32    84    1
    90    32    85    1
    91    35    86    1
    92    35    87    1
    93    36    88    1
    94    36    89    1
    95    36    90    1
    96    37    91    1
    97    37    92    1
    98    37    93    1
    99    39    94    1
   100    39    95    1
   101    39    96    1
   102    40    97    1
   103    40    98    1
   104    40    99    1
   105    42   100    1
   106    43   101    1
   107    46   102    1
   108    47   103    1
   109    49   104    1
   110    51   105    1
   111    52   106    1
@<TRIPOS>MOLECULE
11672244
 106 111 0 0 0
SMALL
GASTEIGER

@<TRIPOS>ATOM
      1 O          -3.7242    0.0081   -6.2250 O.3     1  LIG1       -0.4607
      2 O          -6.1813    6.5549   -7.1856 O.2     1  LIG1       -0.2968
      3 O          -6.5265   -4.2374   -9.5864 O.co2   1  LIG1       -0.5492
      4 O          -7.2781   -5.5561   -7.8987 O.co2   1  LIG1       -0.5492
      5 O          -4.1091    1.4733   -4.4935 O.2     1  LIG1       -0.2456
      6 O           3.1573    1.6785   -4.9841 O.3     1  LIG1       -0.5067
      7 O          -1.4292    1.2320   -9.6499 O.2     1  LIG1       -0.2705
      8 O          -2.8472    5.0082  -12.6759 O.co2   1  LIG1       -0.5452
      9 O          -1.8177    3.7262  -14.2649 O.co2   1  LIG1       -0.5452
     10 N          -0.4835    3.2383   -8.8982 N.am    1  LIG1       -0.2815
     11 C          -6.7749    0.0197   -7.4088 C.3     1  LIG1       -0.0160
     12 C          -5.9246    1.0695   -8.2158 C.3     1  LIG1       -0.0256
     13 C          -5.8100   -1.2334   -6.9659 C.3     1  LIG1        0.0318
     14 C          -6.5533    2.5230   -8.4381 C.3     1  LIG1       -0.0243
     15 C          -7.0655    3.0318   -7.0432 C.3     1  LIG1       -0.0235
     16 C          -7.4183    0.6949   -6.1688 C.3     1  LIG1       -0.0461
     17 C          -4.9945   -1.7465   -8.1754 C.2     1  LIG1       -0.0596
     18 C          -4.3450   -3.1377   -8.0260 C.3     1  LIG1       -0.0080
     19 C          -8.0861    2.0402   -6.4497 C.3     1  LIG1       -0.0483
     20 C          -6.6947   -2.3961   -6.3960 C.3     1  LIG1       -0.0392
     21 C          -5.3307    0.4158   -9.4801 C.3     1  LIG1       -0.0306
     22 C          -5.3127   -4.2297   -7.5000 C.3     1  LIG1        0.0167
     23 C          -7.5002    4.5325   -6.9547 C.3     1  LIG1        0.0267
     24 C          -5.4124    3.4884   -8.8805 C.3     1  LIG1       -0.0404
     25 C          -5.9671   -3.7300   -6.1918 C.3     1  LIG1       -0.0408
     26 C          -7.9456   -0.5131   -8.2956 C.3     1  LIG1       -0.0584
     27 C          -4.8177   -0.9783   -9.2701 C.2     1  LIG1       -0.0835
     28 C          -4.7873   -0.8689   -5.8194 C.3     1  LIG1        0.1025
     29 C          -7.6425    2.5461   -9.5367 C.3     1  LIG1       -0.0590
     30 C          -3.5040   -3.6333   -9.2318 C.3     1  LIG1       -0.0405
     31 C          -4.5053   -5.5166   -7.1902 C.3     1  LIG1       -0.0412
     32 C          -5.8050    4.9602   -8.9085 C.3     1  LIG1        0.0069
     33 C          -2.7556   -4.9645   -8.9832 C.3     1  LIG1       -0.0343
     34 C          -6.4327    5.4238   -7.6151 C.2     1  LIG1        0.1392
     35 C          -3.7115   -6.0213   -8.3977 C.3     1  LIG1       -0.0470
     36 C          -8.8616    4.8537   -7.5875 C.3     1  LIG1       -0.0528
     37 C          -7.5831    4.9522   -5.4617 C.3     1  LIG1       -0.0528
     38 C          -6.4860   -4.7124   -8.4200 C.2     1  LIG1        0.0485
     39 C          -2.2018   -5.4803  -10.3264 C.3     1  LIG1       -0.0598
     40 C          -1.5555   -4.7403   -8.0400 C.3     1  LIG1       -0.0598
     41 C          -3.4541    1.0743   -5.4466 C.2     1  LIG1        0.3320
     42 C          -2.1661    1.7007   -5.8118 C.2     1  LIG1        0.0231
     43 C          -1.3244    1.2241   -6.7432 C.2     1  LIG1       -0.0460
     44 C           0.0160    1.8028   -6.9118 C.ar    1  LIG1       -0.0001
     45 C           0.3564    2.7828   -7.8637 C.ar    1  LIG1        0.0411
     46 C           0.9710    1.4241   -5.9464 C.ar    1  LIG1       -0.0113
     47 C           1.6120    3.4105   -7.7804 C.ar    1  LIG1       -0.0364
     48 C           2.2227    2.0306   -5.9131 C.ar    1  LIG1        0.1175
     49 C           2.5460    3.0291   -6.8163 C.ar    1  LIG1       -0.0184
     50 C          -1.3043    2.4469   -9.6848 C.2     1  LIG1        0.2411
     51 C          -1.9338    3.2830  -10.7324 C.2     1  LIG1        0.0021
     52 C          -1.7051    3.0376  -12.0292 C.2     1  LIG1       -0.0344
     53 C          -2.1922    4.0112  -13.0931 C.2     1  LIG1        0.0647
     54 H           2.8045    0.9310   -4.4729 H       1  LIG1        0.2921
     55 H          -0.2365    4.1186   -9.3364 H       1  LIG1        0.1551
     56 H          -5.0609    1.2843   -7.5822 H       1  LIG1        0.0315
     57 H          -6.1826    2.9744   -6.3840 H       1  LIG1        0.0315
     58 H          -6.6669    0.8899   -5.4008 H       1  LIG1        0.0271
     59 H          -8.1541    0.0261   -5.7063 H       1  LIG1        0.0271
     60 H          -3.6015   -2.9810   -7.2310 H       1  LIG1        0.0355
     61 H          -8.9575    1.9096   -7.0968 H       1  LIG1        0.0269
     62 H          -8.4770    2.4059   -5.4956 H       1  LIG1        0.0269
     63 H          -7.5373   -2.6126   -7.0568 H       1  LIG1        0.0275
     64 H          -7.1320   -2.0918   -5.4371 H       1  LIG1        0.0275
     65 H          -6.0616    0.3638  -10.2910 H       1  LIG1        0.0310
     66 H          -4.4958    1.0244   -9.8450 H       1  LIG1        0.0310
     67 H          -5.0494    3.2141   -9.8778 H       1  LIG1        0.0275
     68 H          -4.5589    3.3802   -8.1976 H       1  LIG1        0.0275
     69 H          -6.6862   -4.4588   -5.7965 H       1  LIG1        0.0275
     70 H          -5.2116   -3.6326   -5.4040 H       1  LIG1        0.0275
     71 H          -8.4955    0.2774   -8.7981 H       1  LIG1        0.0235
     72 H          -8.6980   -1.0390   -7.6978 H       1  LIG1        0.0235
     73 H          -7.6047   -1.2025   -9.0736 H       1  LIG1        0.0235
     74 H          -4.2543   -1.3560  -10.1189 H       1  LIG1        0.0572
     75 H          -5.3060   -0.5088   -4.9261 H       1  LIG1        0.0706
     76 H          -4.2648   -1.7667   -5.4769 H       1  LIG1        0.0706
     77 H          -8.6296    2.2636   -9.1692 H       1  LIG1        0.0235
     78 H          -7.4017    1.8951  -10.3791 H       1  LIG1        0.0235
     79 H          -7.7695    3.5334   -9.9844 H       1  LIG1        0.0235
     80 H          -2.7592   -2.8702   -9.4965 H       1  LIG1        0.0276
     81 H          -4.1495   -3.7417  -10.1116 H       1  LIG1        0.0276
     82 H          -5.1580   -6.3261   -6.8395 H       1  LIG1        0.0274
     83 H          -3.8132   -5.3265   -6.3600 H       1  LIG1        0.0274
     84 H          -6.4958    5.1877   -9.7250 H       1  LIG1        0.0342
     85 H          -4.9024    5.5583   -9.0822 H       1  LIG1        0.0342
     86 H          -4.4155   -6.3517   -9.1723 H       1  LIG1        0.0271
     87 H          -3.1476   -6.9157   -8.1037 H       1  LIG1        0.0271
     88 H          -8.8594    4.7625   -8.6740 H       1  LIG1        0.0239
     89 H          -9.1482    5.8926   -7.3804 H       1  LIG1        0.0239
     90 H          -9.6561    4.2148   -7.1892 H       1  LIG1        0.0239
     91 H          -6.6389    4.7535   -4.9415 H       1  LIG1        0.0239
     92 H          -8.3837    4.4317   -4.9281 H       1  LIG1        0.0239
     93 H          -7.7879    6.0244   -5.3543 H       1  LIG1        0.0239
     94 H          -3.0085   -5.6606  -11.0460 H       1  LIG1        0.0235
     95 H          -1.6576   -6.4223  -10.1951 H       1  LIG1        0.0235
     96 H          -1.5134   -4.7552  -10.7752 H       1  LIG1        0.0235
     97 H          -1.8568   -4.3723   -7.0555 H       1  LIG1        0.0235
     98 H          -0.8565   -4.0087   -8.4617 H       1  LIG1        0.0235
     99 H          -1.0007   -5.6726   -7.8841 H       1  LIG1        0.0235
    100 H          -1.9071    2.5594   -5.2026 H       1  LIG1        0.0689
    101 H          -1.5589    0.3573   -7.3572 H       1  LIG1        0.0626
    102 H           0.7102    0.6667   -5.2116 H       1  LIG1        0.0660
    103 H           1.8911    4.1782   -8.4982 H       1  LIG1        0.0637
    104 H           3.5221    3.5031   -6.7819 H       1  LIG1        0.0655
    105 H          -2.4850    4.1582  -10.4072 H       1  LIG1        0.0670
    106 H          -1.1246    2.1789  -12.3507 H       1  LIG1        0.0637
@<TRIPOS>BOND
     1     1    41    1
     2     1    28    1
     3     2    34    2
     4     3    38   ar
     5     4    38   ar
     6     5    41    2
     7     6    48    1
     8     7    50    2
     9     8    53   ar
    10     9    53   ar
    11    10    45    1
    12    10    50   am
    13    11    16    1
    14    11    12    1
    15    11    26    1
    16    11    13    1
    17    12    14    1
    18    13    20    1
    19    13    17    1
    20    13    28    1
    21    14    15    1
    22    14    24    1
    23    14    29    1
    24    15    19    1
    25    15    23    1
    26    16    19    1
    27    17    18    1
    28    17    27    2
    29    18    30    1
    30    18    22    1
    31    20    25    1
    32    21    27    1
    33    21    12    1
    34    22    31    1
    35    22    25    1
    36    22    38    1
    37    23    34    1
    38    23    37    1
    39    23    36    1
    40    24    32    1
    41    30    33    1
    42    31    35    1
    43    32    34    1
    44    33    35    1
    45    33    40    1
    46    33    39    1
    47    41    42    1
    48    42    43    2
    49    43    44    1
    50    44    46   ar
    51    44    45   ar
    52    45    47   ar
    53    46    48   ar
    54    47    49   ar
    55    48    49   ar
    56    50    51    1
    57    51    52    2
    58    52    53    1
    59     6    54    1
    60    10    55    1
    61    12    56    1
    62    15    57    1
    63    16    58    1
    64    16    59    1
    65    18    60    1
    66    19    61    1
    67    19    62    1
    68    20    63    1
    69    20    64    1
    70    21    65    1
    71    21    66    1
    72    24    67    1
    73    24    68    1
    74    25    69    1
    75    25    70    1
    76    26    71    1
    77    26    72    1
    78    26    73    1
    79    27    74    1
    80    28    75    1
    81    28    76    1
    82    29    77    1
    83    29    78    1
    84    29    79    1
    85    30    80    1
    86    30    81    1
    87    31    82    1
    88    31    83    1
    89    32    84    1
    90    32    85    1
    91    35    86    1
    92    35    87    1
    93    36    88    1
    94    36    89    1
    95    36    90    1
    96    37    91    1
    97    37    92    1
    98    37    93    1
    99    39    94    1
   100    39    95    1
   101    39    96    1
   102    40    97    1
   103    40    98    1
   104    40    99    1
   105    42   100    1
   106    43   101    1
   107    46   102    1
   108    47   103    1
   109    49   104    1
   110    51   105    1
   111    52   106    1
@<TRIPOS>MOLECULE
11672244
 106 111 0 0 0
SMALL
GASTEIGER

@<TRIPOS>ATOM
      1 O          -3.7182   -1.7068   -5.4190 O.3     1  LIG1       -0.4607
      2 O          -6.3938    6.5796   -7.2972 O.2     1  LIG1       -0.2968
      3 O          -6.6074   -4.1182   -9.6630 O.co2   1  LIG1       -0.5492
      4 O          -7.4348   -5.3751   -7.9642 O.co2   1  LIG1       -0.5492
      5 O          -1.9853   -0.6174   -6.4870 O.2     1  LIG1       -0.2456
      6 O           1.8057   -6.8168   -5.2532 O.3     1  LIG1       -0.5067
      7 O           0.7389   -0.3294   -3.7397 O.2     1  LIG1       -0.2705
      8 O           0.9707    1.4513    0.9479 O.co2   1  LIG1       -0.5452
      9 O           1.6214    3.2788   -0.2611 O.co2   1  LIG1       -0.5452
     10 N           0.9637   -2.1577   -2.2984 N.am    1  LIG1       -0.2815
     11 C          -6.7275   -0.0303   -7.4112 C.3     1  LIG1       -0.0160
     12 C          -5.8977    1.0450   -8.2142 C.3     1  LIG1       -0.0256
     13 C          -5.7085   -1.2592   -6.9703 C.3     1  LIG1        0.0318
     14 C          -6.5568    2.4857   -8.4307 C.3     1  LIG1       -0.0243
     15 C          -7.0781    2.9818   -7.0366 C.3     1  LIG1       -0.0235
     16 C          -7.3864    0.6320   -6.1693 C.3     1  LIG1       -0.0461
     17 C          -4.9349   -1.7663   -8.2149 C.2     1  LIG1       -0.0596
     18 C          -4.3455   -3.1935   -8.1506 C.3     1  LIG1       -0.0080
     19 C          -8.0789    1.9666   -6.4466 C.3     1  LIG1       -0.0483
     20 C          -6.5419   -2.4139   -6.3238 C.3     1  LIG1       -0.0392
     21 C          -5.2949    0.4130   -9.4840 C.3     1  LIG1       -0.0306
     22 C          -5.3382   -4.2522   -7.6146 C.3     1  LIG1        0.0167
     23 C          -7.5462    4.4738   -6.9475 C.3     1  LIG1        0.0267
     24 C          -5.4344    3.4735   -8.8652 C.3     1  LIG1       -0.0404
     25 C          -5.8573   -3.7774   -6.2394 C.3     1  LIG1       -0.0408
     26 C          -7.8833   -0.5942   -8.2964 C.3     1  LIG1       -0.0584
     27 C          -4.7805   -0.9817   -9.3018 C.2     1  LIG1       -0.0835
     28 C          -4.6684   -0.7389   -5.8959 C.3     1  LIG1        0.1025
     29 C          -7.6475    2.4933   -9.5278 C.3     1  LIG1       -0.0590
     30 C          -3.5765   -3.6854   -9.4068 C.3     1  LIG1       -0.0405
     31 C          -4.6039   -5.6027   -7.4089 C.3     1  LIG1       -0.0412
     32 C          -5.8636    4.9323   -8.9138 C.3     1  LIG1        0.0069
     33 C          -2.8832   -5.0575   -9.2290 C.3     1  LIG1       -0.0343
     34 C          -6.5409    5.4041   -7.6498 C.2     1  LIG1        0.1392
     35 C          -3.8767   -6.0894   -8.6635 C.3     1  LIG1       -0.0470
     36 C          -8.9386    4.7498   -7.5341 C.3     1  LIG1       -0.0528
     37 C          -7.5853    4.9026   -5.4554 C.3     1  LIG1       -0.0528
     38 C          -6.5806   -4.6059   -8.4994 C.2     1  LIG1        0.0485
     39 C          -2.3816   -5.5454  -10.6021 C.3     1  LIG1       -0.0598
     40 C          -1.6546   -4.9268   -8.3065 C.3     1  LIG1       -0.0598
     41 C          -2.4191   -1.4809   -5.7449 C.2     1  LIG1        0.3320
     42 C          -1.6052   -2.4928   -5.0384 C.2     1  LIG1        0.0231
     43 C          -0.2694   -2.4589   -5.1434 C.2     1  LIG1       -0.0460
     44 C           0.5926   -3.4238   -4.4576 C.ar    1  LIG1       -0.0001
     45 C           1.0980   -3.2805   -3.1497 C.ar    1  LIG1        0.0411
     46 C           0.8391   -4.6184   -5.1660 C.ar    1  LIG1       -0.0113
     47 C           1.8009   -4.3607   -2.5783 C.ar    1  LIG1       -0.0364
     48 C           1.5608   -5.6542   -4.5834 C.ar    1  LIG1        0.1175
     49 C           2.0417   -5.5354   -3.2920 C.ar    1  LIG1       -0.0184
     50 C           0.7783   -0.8280   -2.6259 C.2     1  LIG1        0.2411
     51 C           0.7678    0.0052   -1.3924 C.2     1  LIG1        0.0021
     52 C           1.1376    1.2939   -1.4089 C.2     1  LIG1       -0.0344
     53 C           1.2384    2.0850   -0.1125 C.2     1  LIG1        0.0647
     54 H           1.3616   -6.7661   -6.1163 H       1  LIG1        0.2921
     55 H           1.2332   -2.3088   -1.3350 H       1  LIG1        0.1551
     56 H          -5.0319    1.2756   -7.5832 H       1  LIG1        0.0315
     57 H          -6.1943    2.9414   -6.3773 H       1  LIG1        0.0315
     58 H          -6.6419    0.8434   -5.3985 H       1  LIG1        0.0271
     59 H          -8.1084   -0.0535   -5.7091 H       1  LIG1        0.0271
     60 H          -3.5605   -3.1155   -7.3941 H       1  LIG1        0.0355
     61 H          -8.9469    1.8203   -7.0948 H       1  LIG1        0.0269
     62 H          -8.4771    2.3244   -5.4922 H       1  LIG1        0.0269
     63 H          -7.4681   -2.5846   -6.8761 H       1  LIG1        0.0275
     64 H          -6.8566   -2.1207   -5.3143 H       1  LIG1        0.0275
     65 H          -6.0238    0.3717  -10.2973 H       1  LIG1        0.0310
     66 H          -4.4609    1.0296   -9.8378 H       1  LIG1        0.0310
     67 H          -5.0473    3.2007   -9.8540 H       1  LIG1        0.0275
     68 H          -4.5889    3.3935   -8.1686 H       1  LIG1        0.0275
     69 H          -6.5693   -4.4964   -5.8138 H       1  LIG1        0.0275
     70 H          -5.0353   -3.7379   -5.5164 H       1  LIG1        0.0275
     71 H          -8.4469    0.1830   -8.8048 H       1  LIG1        0.0235
     72 H          -8.6270   -1.1322   -7.6994 H       1  LIG1        0.0235
     73 H          -7.5282   -1.2805   -9.0700 H       1  LIG1        0.0235
     74 H          -4.2666   -1.3666  -10.1774 H       1  LIG1        0.0572
     75 H          -4.1504    0.1611   -6.2323 H       1  LIG1        0.0706
     76 H          -5.2019   -0.4502   -4.9865 H       1  LIG1        0.0706
     77 H          -8.6210    2.1589   -9.1684 H       1  LIG1        0.0235
     78 H          -7.3803    1.8782  -10.3889 H       1  LIG1        0.0235
     79 H          -7.8187    3.4868   -9.9456 H       1  LIG1        0.0235
     80 H          -2.8062   -2.9491   -9.6739 H       1  LIG1        0.0276
     81 H          -4.2566   -3.7347  -10.2651 H       1  LIG1        0.0276
     82 H          -5.2977   -6.3882   -7.0828 H       1  LIG1        0.0274
     83 H          -3.8774   -5.5057   -6.5918 H       1  LIG1        0.0274
     84 H          -6.5348    5.1329   -9.7536 H       1  LIG1        0.0342
     85 H          -4.9709    5.5504   -9.0692 H       1  LIG1        0.0342
     86 H          -4.6210   -6.3446   -9.4285 H       1  LIG1        0.0271
     87 H          -3.3526   -7.0249   -8.4289 H       1  LIG1        0.0271
     88 H          -8.9739    4.6328   -8.6177 H       1  LIG1        0.0239
     89 H          -9.2416    5.7864   -7.3391 H       1  LIG1        0.0239
     90 H          -9.7029    4.1031   -7.0923 H       1  LIG1        0.0239
     91 H          -6.6116    4.7513   -4.9750 H       1  LIG1        0.0239
     92 H          -8.3371    4.3499   -4.8847 H       1  LIG1        0.0239
     93 H          -7.8326    5.9655   -5.3462 H       1  LIG1        0.0239
     94 H          -3.2103   -5.6656  -11.3088 H       1  LIG1        0.0235
     95 H          -1.8751   -6.5135  -10.5170 H       1  LIG1        0.0235
     96 H          -1.6720   -4.8340  -11.0395 H       1  LIG1        0.0235
     97 H          -1.9218   -4.6114   -7.2952 H       1  LIG1        0.0235
     98 H          -0.9428   -4.1920   -8.7004 H       1  LIG1        0.0235
     99 H          -1.1258   -5.8827   -8.2180 H       1  LIG1        0.0235
    100 H          -2.1286   -3.2294   -4.4430 H       1  LIG1        0.0689
    101 H           0.2354   -1.7000   -5.7375 H       1  LIG1        0.0626
    102 H           0.4471   -4.7277   -6.1738 H       1  LIG1        0.0660
    103 H           2.2000   -4.2854   -1.5693 H       1  LIG1        0.0637
    104 H           2.6030   -6.3467   -2.8393 H       1  LIG1        0.0655
    105 H           0.4936   -0.4693   -0.4564 H       1  LIG1        0.0670
    106 H           1.4161    1.7898   -2.3328 H       1  LIG1        0.0637
@<TRIPOS>BOND
     1     1    41    1
     2     1    28    1
     3     2    34    2
     4     3    38   ar
     5     4    38   ar
     6     5    41    2
     7     6    48    1
     8     7    50    2
     9     8    53   ar
    10     9    53   ar
    11    10    45    1
    12    10    50   am
    13    11    16    1
    14    11    12    1
    15    11    26    1
    16    11    13    1
    17    12    14    1
    18    13    20    1
    19    13    17    1
    20    13    28    1
    21    14    15    1
    22    14    24    1
    23    14    29    1
    24    15    19    1
    25    15    23    1
    26    16    19    1
    27    17    18    1
    28    17    27    2
    29    18    30    1
    30    18    22    1
    31    20    25    1
    32    21    27    1
    33    21    12    1
    34    22    31    1
    35    22    25    1
    36    22    38    1
    37    23    34    1
    38    23    37    1
    39    23    36    1
    40    24    32    1
    41    30    33    1
    42    31    35    1
    43    32    34    1
    44    33    35    1
    45    33    40    1
    46    33    39    1
    47    41    42    1
    48    42    43    2
    49    43    44    1
    50    44    46   ar
    51    44    45   ar
    52    45    47   ar
    53    46    48   ar
    54    47    49   ar
    55    48    49   ar
    56    50    51    1
    57    51    52    2
    58    52    53    1
    59     6    54    1
    60    10    55    1
    61    12    56    1
    62    15    57    1
    63    16    58    1
    64    16    59    1
    65    18    60    1
    66    19    61    1
    67    19    62    1
    68    20    63    1
    69    20    64    1
    70    21    65    1
    71    21    66    1
    72    24    67    1
    73    24    68    1
    74    25    69    1
    75    25    70    1
    76    26    71    1
    77    26    72    1
    78    26    73    1
    79    27    74    1
    80    28    75    1
    81    28    76    1
    82    29    77    1
    83    29    78    1
    84    29    79    1
    85    30    80    1
    86    30    81    1
    87    31    82    1
    88    31    83    1
    89    32    84    1
    90    32    85    1
    91    35    86    1
    92    35    87    1
    93    36    88    1
    94    36    89    1
    95    36    90    1
    96    37    91    1
    97    37    92    1
    98    37    93    1
    99    39    94    1
   100    39    95    1
   101    39    96    1
   102    40    97    1
   103    40    98    1
   104    40    99    1
   105    42   100    1
   106    43   101    1
   107    46   102    1
   108    47   103    1
   109    49   104    1
   110    51   105    1
   111    52   106    1
@<TRIPOS>MOLECULE
11672244
 106 111 0 0 0
SMALL
GASTEIGER

@<TRIPOS>ATOM
      1 O          -3.7329    0.1544   -6.2400 O.3     1  LIG1       -0.4607
      2 O          -6.1373    6.4841   -6.9296 O.2     1  LIG1       -0.2968
      3 O          -6.3384   -4.2451   -9.7209 O.co2   1  LIG1       -0.5492
      4 O          -7.4121   -5.2183   -7.9722 O.co2   1  LIG1       -0.5492
      5 O          -4.0534    1.4559   -4.3683 O.2     1  LIG1       -0.2456
      6 O           3.1170    1.3202   -5.6044 O.3     1  LIG1       -0.5067
      7 O           0.5594    5.1338  -10.2027 O.2     1  LIG1       -0.2705
      8 O          -2.8961    8.0299  -12.3790 O.co2   1  LIG1       -0.5452
      9 O          -4.1279    6.3574  -11.4255 O.co2   1  LIG1       -0.5452
     10 N          -0.7520    3.8182   -8.7910 N.am    1  LIG1       -0.2815
     11 C          -6.7583    0.0442   -7.4091 C.3     1  LIG1       -0.0160
     12 C          -5.9302    1.1139   -8.2124 C.3     1  LIG1       -0.0256
     13 C          -5.7666   -1.1832   -6.9648 C.3     1  LIG1        0.0318
     14 C          -6.5798    2.5625   -8.4127 C.3     1  LIG1       -0.0243
     15 C          -7.1106    3.0349   -7.0094 C.3     1  LIG1       -0.0235
     16 C          -7.4222    0.6913   -6.1663 C.3     1  LIG1       -0.0461
     17 C          -4.9443   -1.6859   -8.1777 C.2     1  LIG1       -0.0596
     18 C          -4.2957   -3.0806   -8.0327 C.3     1  LIG1       -0.0080
     19 C          -8.1201    2.0198   -6.4422 C.3     1  LIG1       -0.0483
     20 C          -6.6315   -2.3497   -6.3708 C.3     1  LIG1       -0.0392
     21 C          -5.3313    0.4707   -9.4816 C.3     1  LIG1       -0.0306
     22 C          -5.2944   -4.1631   -7.5485 C.3     1  LIG1        0.0167
     23 C          -7.5634    4.5262   -6.8848 C.3     1  LIG1        0.0267
     24 C          -5.4512    3.5571   -8.8313 C.3     1  LIG1       -0.0404
     25 C          -5.9058   -3.6874   -6.2114 C.3     1  LIG1       -0.0408
     26 C          -7.9138   -0.5111   -8.3042 C.3     1  LIG1       -0.0584
     27 C          -4.7845   -0.9149   -9.2745 C.2     1  LIG1       -0.0835
     28 C          -4.7400   -0.7895   -5.8303 C.3     1  LIG1        0.1025
     29 C          -7.6593    2.5856   -9.5196 C.3     1  LIG1       -0.0590
     30 C          -3.4147   -3.5610   -9.2154 C.3     1  LIG1       -0.0405
     31 C          -4.5579   -5.5024   -7.2948 C.3     1  LIG1       -0.0412
     32 C          -5.8569    5.0282   -8.7982 C.3     1  LIG1        0.0069
     33 C          -2.7124   -4.9196   -8.9747 C.3     1  LIG1       -0.0343
     34 C          -6.4614    5.4244   -7.4719 C.2     1  LIG1        0.1392
     35 C          -3.7285   -5.9713   -8.4912 C.3     1  LIG1       -0.0470
     36 C          -8.8970    4.8652   -7.5620 C.3     1  LIG1       -0.0528
     37 C          -7.7082    4.8985   -5.3845 C.3     1  LIG1       -0.0528
     38 C          -6.4656   -4.5667   -8.5082 C.2     1  LIG1        0.0485
     39 C          -2.0917   -5.4018  -10.3007 C.3     1  LIG1       -0.0598
     40 C          -1.5678   -4.7669   -7.9521 C.3     1  LIG1       -0.0598
     41 C          -3.4574    1.1732   -5.3973 C.2     1  LIG1        0.3320
     42 C          -2.2074    1.8655   -5.7829 C.2     1  LIG1        0.0231
     43 C          -1.5321    1.6605   -6.9257 C.2     1  LIG1       -0.0460
     44 C          -0.1552    2.1626   -7.0851 C.ar    1  LIG1       -0.0001
     45 C           0.2294    3.1728   -7.9943 C.ar    1  LIG1        0.0411
     46 C           0.8232    1.5343   -6.2837 C.ar    1  LIG1       -0.0113
     47 C           1.5869    3.5285   -8.0549 C.ar    1  LIG1       -0.0364
     48 C           2.1570    1.9114   -6.3709 C.ar    1  LIG1        0.1175
     49 C           2.5448    2.9050   -7.2491 C.ar    1  LIG1       -0.0184
     50 C          -0.5292    4.7640   -9.7789 C.2     1  LIG1        0.2411
     51 C          -1.7970    5.3258  -10.3173 C.2     1  LIG1        0.0021
     52 C          -1.7802    6.3750  -11.1543 C.2     1  LIG1       -0.0344
     53 C          -3.0641    6.9775  -11.7027 C.2     1  LIG1        0.0647
     54 H           2.6981    0.6182   -5.0801 H       1  LIG1        0.2921
     55 H          -1.7150    3.5677   -8.6095 H       1  LIG1        0.1551
     56 H          -5.0674    1.3405   -7.5845 H       1  LIG1        0.0315
     57 H          -6.2300    2.9750   -6.3466 H       1  LIG1        0.0315
     58 H          -6.6786    0.8959   -5.3924 H       1  LIG1        0.0271
     59 H          -8.1446    0.0021   -5.7127 H       1  LIG1        0.0271
     60 H          -3.5751   -2.9424   -7.2149 H       1  LIG1        0.0355
     61 H          -8.9788    1.8774   -7.1035 H       1  LIG1        0.0269
     62 H          -8.5322    2.3637   -5.4894 H       1  LIG1        0.0269
     63 H          -7.5048   -2.5536   -6.9934 H       1  LIG1        0.0275
     64 H          -7.0272   -2.0548   -5.3907 H       1  LIG1        0.0275
     65 H          -6.0695    0.4007  -10.2850 H       1  LIG1        0.0310
     66 H          -4.5143    1.0985   -9.8552 H       1  LIG1        0.0310
     67 H          -5.0913    3.3205   -9.8397 H       1  LIG1        0.0275
     68 H          -4.5912    3.4330   -8.1592 H       1  LIG1        0.0275
     69 H          -6.6122   -4.4235   -5.8069 H       1  LIG1        0.0275
     70 H          -5.1241   -3.6007   -5.4472 H       1  LIG1        0.0275
     71 H          -8.4520    0.2682   -8.8370 H       1  LIG1        0.0235
     72 H          -8.6773   -1.0240   -7.7088 H       1  LIG1        0.0235
     73 H          -7.5592   -1.2196   -9.0587 H       1  LIG1        0.0235
     74 H          -4.2365   -1.2991  -10.1303 H       1  LIG1        0.0572
     75 H          -5.2644   -0.4670   -4.9258 H       1  LIG1        0.0706
     76 H          -4.1705   -1.6687   -5.5128 H       1  LIG1        0.0706
     77 H          -8.6436    2.2756   -9.1666 H       1  LIG1        0.0235
     78 H          -7.3974    1.9547  -10.3712 H       1  LIG1        0.0235
     79 H          -7.7976    3.5786   -9.9511 H       1  LIG1        0.0235
     80 H          -2.6438   -2.8053   -9.4208 H       1  LIG1        0.0276
     81 H          -4.0171   -3.6264  -10.1287 H       1  LIG1        0.0276
     82 H          -5.2654   -6.2996   -7.0306 H       1  LIG1        0.0274
     83 H          -3.8995   -5.4019   -6.4227 H       1  LIG1        0.0274
     84 H          -6.5627    5.2826   -9.5933 H       1  LIG1        0.0342
     85 H          -4.9631    5.6422   -8.9537 H       1  LIG1        0.0342
     86 H          -4.4053   -6.2382   -9.3128 H       1  LIG1        0.0271
     87 H          -3.2089   -6.8993   -8.2197 H       1  LIG1        0.0271
     88 H          -8.8483    4.8259   -8.6503 H       1  LIG1        0.0239
     89 H          -9.2027    5.8910   -7.3198 H       1  LIG1        0.0239
     90 H          -9.7003    4.2007   -7.2285 H       1  LIG1        0.0239
     91 H          -6.7932    4.6650   -4.8277 H       1  LIG1        0.0239
     92 H          -8.5425    4.3773   -4.9062 H       1  LIG1        0.0239
     93 H          -7.8992    5.9705   -5.2518 H       1  LIG1        0.0239
     94 H          -2.8573   -5.5329  -11.0738 H       1  LIG1        0.0235
     95 H          -1.5822   -6.3637  -10.1726 H       1  LIG1        0.0235
     96 H          -1.3575   -4.6816  -10.6789 H       1  LIG1        0.0235
     97 H          -1.9191   -4.4284   -6.9735 H       1  LIG1        0.0235
     98 H          -0.8245   -4.0410   -8.3007 H       1  LIG1        0.0235
     99 H          -1.0499   -5.7209   -7.7993 H       1  LIG1        0.0235
    100 H          -1.8166    2.5135   -5.0044 H       1  LIG1        0.0689
    101 H          -1.9014    1.0089   -7.7147 H       1  LIG1        0.0626
    102 H           0.5269    0.7434   -5.5996 H       1  LIG1        0.0660
    103 H           1.9426    4.3095   -8.7191 H       1  LIG1        0.0637
    104 H           3.5862    3.2037   -7.3188 H       1  LIG1        0.0655
    105 H          -2.7391    4.8846  -10.0168 H       1  LIG1        0.0670
    106 H          -0.8480    6.8388  -11.4613 H       1  LIG1        0.0637
@<TRIPOS>BOND
     1     1    41    1
     2     1    28    1
     3     2    34    2
     4     3    38   ar
     5     4    38   ar
     6     5    41    2
     7     6    48    1
     8     7    50    2
     9     8    53   ar
    10     9    53   ar
    11    10    45    1
    12    10    50   am
    13    11    16    1
    14    11    12    1
    15    11    26    1
    16    11    13    1
    17    12    14    1
    18    13    20    1
    19    13    17    1
    20    13    28    1
    21    14    15    1
    22    14    24    1
    23    14    29    1
    24    15    19    1
    25    15    23    1
    26    16    19    1
    27    17    18    1
    28    17    27    2
    29    18    30    1
    30    18    22    1
    31    20    25    1
    32    21    27    1
    33    21    12    1
    34    22    31    1
    35    22    25    1
    36    22    38    1
    37    23    34    1
    38    23    37    1
    39    23    36    1
    40    24    32    1
    41    30    33    1
    42    31    35    1
    43    32    34    1
    44    33    35    1
    45    33    40    1
    46    33    39    1
    47    41    42    1
    48    42    43    2
    49    43    44    1
    50    44    46   ar
    51    44    45   ar
    52    45    47   ar
    53    46    48   ar
    54    47    49   ar
    55    48    49   ar
    56    50    51    1
    57    51    52    2
    58    52    53    1
    59     6    54    1
    60    10    55    1
    61    12    56    1
    62    15    57    1
    63    16    58    1
    64    16    59    1
    65    18    60    1
    66    19    61    1
    67    19    62    1
    68    20    63    1
    69    20    64    1
    70    21    65    1
    71    21    66    1
    72    24    67    1
    73    24    68    1
    74    25    69    1
    75    25    70    1
    76    26    71    1
    77    26    72    1
    78    26    73    1
    79    27    74    1
    80    28    75    1
    81    28    76    1
    82    29    77    1
    83    29    78    1
    84    29    79    1
    85    30    80    1
    86    30    81    1
    87    31    82    1
    88    31    83    1
    89    32    84    1
    90    32    85    1
    91    35    86    1
    92    35    87    1
    93    36    88    1
    94    36    89    1
    95    36    90    1
    96    37    91    1
    97    37    92    1
    98    37    93    1
    99    39    94    1
   100    39    95    1
   101    39    96    1
   102    40    97    1
   103    40    98    1
   104    40    99    1
   105    42   100    1
   106    43   101    1
   107    46   102    1
   108    47   103    1
   109    49   104    1
   110    51   105    1
   111    52   106    1
@<TRIPOS>MOLECULE
11672244
 106 111 0 0 0
SMALL
GASTEIGER

@<TRIPOS>ATOM
      1 O          -3.7488    0.1512   -6.2364 O.3     1  LIG1       -0.4607
      2 O          -6.1231    6.4665   -6.9198 O.2     1  LIG1       -0.2968
      3 O          -6.3373   -4.2961   -9.7042 O.co2   1  LIG1       -0.5492
      4 O          -7.4064   -5.2485   -7.9416 O.co2   1  LIG1       -0.5492
      5 O          -4.0331    1.4229   -4.3383 O.2     1  LIG1       -0.2456
      6 O           3.0886    1.4049   -5.7190 O.3     1  LIG1       -0.5067
      7 O           0.4204    5.2093  -10.2845 O.2     1  LIG1       -0.2705
      8 O          -4.7055    4.8936  -12.3953 O.co2   1  LIG1       -0.5452
      9 O          -4.0721    6.8002  -11.3076 O.co2   1  LIG1       -0.5452
     10 N          -0.8508    3.8356   -8.8745 N.am    1  LIG1       -0.2815
     11 C          -6.7667    0.0348   -7.4054 C.3     1  LIG1       -0.0160
     12 C          -5.9380    1.1025   -8.2104 C.3     1  LIG1       -0.0256
     13 C          -5.7757   -1.1931   -6.9606 C.3     1  LIG1        0.0318
     14 C          -6.5845    2.5518   -8.4100 C.3     1  LIG1       -0.0243
     15 C          -7.1149    3.0265   -7.0074 C.3     1  LIG1       -0.0235
     16 C          -7.4291    0.6846   -6.1629 C.3     1  LIG1       -0.0461
     17 C          -4.9537   -1.6975   -8.1730 C.2     1  LIG1       -0.0596
     18 C          -4.3024   -3.0910   -8.0255 C.3     1  LIG1       -0.0080
     19 C          -8.1258    2.0137   -6.4399 C.3     1  LIG1       -0.0483
     20 C          -6.6397   -2.3599   -6.3670 C.3     1  LIG1       -0.0392
     21 C          -5.3403    0.4583   -9.4797 C.3     1  LIG1       -0.0306
     22 C          -5.2947   -4.1752   -7.5330 C.3     1  LIG1        0.0167
     23 C          -7.5637    4.5193   -6.8856 C.3     1  LIG1        0.0267
     24 C          -5.4528    3.5418   -8.8270 C.3     1  LIG1       -0.0404
     25 C          -5.9089   -3.6942   -6.1989 C.3     1  LIG1       -0.0408
     26 C          -7.9233   -0.5195   -8.2991 C.3     1  LIG1       -0.0584
     27 C          -4.7945   -0.9281   -9.2705 C.2     1  LIG1       -0.0835
     28 C          -4.7500   -0.7977   -5.8256 C.3     1  LIG1        0.1025
     29 C          -7.6623    2.5777   -9.5185 C.3     1  LIG1       -0.0590
     30 C          -3.4224   -3.5716   -9.2084 C.3     1  LIG1       -0.0405
     31 C          -4.5480   -5.5077   -7.2719 C.3     1  LIG1       -0.0412
     32 C          -5.8523    5.0144   -8.7934 C.3     1  LIG1        0.0069
     33 C          -2.7127   -4.9258   -8.9643 C.3     1  LIG1       -0.0343
     34 C          -6.4559    5.4115   -7.4681 C.2     1  LIG1        0.1392
     35 C          -3.7202   -5.9801   -8.4684 C.3     1  LIG1       -0.0470
     36 C          -8.8938    4.8629   -7.5673 C.3     1  LIG1       -0.0528
     37 C          -7.7127    4.8930   -5.3854 C.3     1  LIG1       -0.0528
     38 C          -6.4641   -4.5982   -8.4868 C.2     1  LIG1        0.0485
     39 C          -2.0974   -5.4119  -10.2915 C.3     1  LIG1       -0.0598
     40 C          -1.5628   -4.7619   -7.9494 C.3     1  LIG1       -0.0598
     41 C          -3.4619    1.1604   -5.3866 C.2     1  LIG1        0.3320
     42 C          -2.2258    1.8657   -5.7927 C.2     1  LIG1        0.0231
     43 C          -1.5880    1.6941   -6.9628 C.2     1  LIG1       -0.0460
     44 C          -0.2171    2.2012   -7.1558 C.ar    1  LIG1       -0.0001
     45 C           0.1450    3.1951   -8.0915 C.ar    1  LIG1        0.0411
     46 C           0.7809    1.5935   -6.3609 C.ar    1  LIG1       -0.0113
     47 C           1.5012    3.5520   -8.1862 C.ar    1  LIG1       -0.0364
     48 C           2.1114    1.9746   -6.4798 C.ar    1  LIG1        0.1175
     49 C           2.4772    2.9505   -7.3864 C.ar    1  LIG1       -0.0184
     50 C          -0.6459    4.8047   -9.8382 C.2     1  LIG1        0.2411
     51 C          -1.9009    5.4404  -10.2830 C.2     1  LIG1        0.0021
     52 C          -2.7018    4.8679  -11.1916 C.2     1  LIG1       -0.0344
     53 C          -3.9409    5.6047  -11.6849 C.2     1  LIG1        0.0647
     54 H           2.6841    0.7090   -5.1758 H       1  LIG1        0.2921
     55 H          -1.8174    3.5941   -8.6883 H       1  LIG1        0.1551
     56 H          -5.0746    1.3283   -7.5835 H       1  LIG1        0.0315
     57 H          -6.2345    2.9656   -6.3445 H       1  LIG1        0.0315
     58 H          -6.6845    0.8898   -5.3901 H       1  LIG1        0.0271
     59 H          -8.1517   -0.0032   -5.7078 H       1  LIG1        0.0271
     60 H          -3.5793   -2.9470   -7.2099 H       1  LIG1        0.0355
     61 H          -8.9846    1.8722   -7.1014 H       1  LIG1        0.0269
     62 H          -8.5373    2.3591   -5.4875 H       1  LIG1        0.0269
     63 H          -7.5086   -2.5689   -6.9944 H       1  LIG1        0.0275
     64 H          -7.0414   -2.0631   -5.3901 H       1  LIG1        0.0275
     65 H          -6.0786    0.3880  -10.2829 H       1  LIG1        0.0310
     66 H          -4.5225    1.0846   -9.8540 H       1  LIG1        0.0310
     67 H          -5.0957    3.3011   -9.8347 H       1  LIG1        0.0275
     68 H          -4.5927    3.4147   -8.1558 H       1  LIG1        0.0275
     69 H          -6.6129   -4.4303   -5.7903 H       1  LIG1        0.0275
     70 H          -5.1282   -3.6006   -5.4347 H       1  LIG1        0.0275
     71 H          -8.4627    0.2609   -8.8293 H       1  LIG1        0.0235
     72 H          -8.6850   -1.0340   -7.7030 H       1  LIG1        0.0235
     73 H          -7.5696   -1.2264   -9.0556 H       1  LIG1        0.0235
     74 H          -4.2460   -1.3113  -10.1266 H       1  LIG1        0.0572
     75 H          -5.2756   -0.4772   -4.9211 H       1  LIG1        0.0706
     76 H          -4.1763   -1.6744   -5.5092 H       1  LIG1        0.0706
     77 H          -8.6481    2.2712   -9.1665 H       1  LIG1        0.0235
     78 H          -7.4015    1.9451  -10.3692 H       1  LIG1        0.0235
     79 H          -7.7959    3.5708   -9.9515 H       1  LIG1        0.0235
     80 H          -2.6554   -2.8135   -9.4194 H       1  LIG1        0.0276
     81 H          -4.0275   -3.6430  -10.1195 H       1  LIG1        0.0276
     82 H          -5.2488   -6.3076   -6.9986 H       1  LIG1        0.0274
     83 H          -3.8867   -5.3956   -6.4034 H       1  LIG1        0.0274
     84 H          -6.5550    5.2734   -9.5897 H       1  LIG1        0.0342
     85 H          -4.9557    5.6246   -8.9430 H       1  LIG1        0.0342
     86 H          -4.3983   -6.2579   -9.2853 H       1  LIG1        0.0271
     87 H          -3.1936   -6.9027   -8.1921 H       1  LIG1        0.0271
     88 H          -8.8406    4.8252   -8.6555 H       1  LIG1        0.0239
     89 H          -9.1971    5.8893   -7.3253 H       1  LIG1        0.0239
     90 H          -9.7004    4.2003   -7.2381 H       1  LIG1        0.0239
     91 H          -6.8004    4.6566   -4.8254 H       1  LIG1        0.0239
     92 H          -8.5507    4.3756   -4.9098 H       1  LIG1        0.0239
     93 H          -7.8999    5.9659   -5.2546 H       1  LIG1        0.0239
     94 H          -2.8667   -5.5499  -11.0597 H       1  LIG1        0.0235
     95 H          -1.5832   -6.3710  -10.1617 H       1  LIG1        0.0235
     96 H          -1.3683   -4.6905  -10.6773 H       1  LIG1        0.0235
     97 H          -1.9102   -4.4199   -6.9706 H       1  LIG1        0.0235
     98 H          -0.8251   -4.0342   -8.3063 H       1  LIG1        0.0235
     99 H          -1.0393   -5.7125   -7.7947 H       1  LIG1        0.0235
    100 H          -1.8123    2.4936   -5.0099 H       1  LIG1        0.0689
    101 H          -1.9846    1.0660   -7.7575 H       1  LIG1        0.0626
    102 H           0.5028    0.8143   -5.6560 H       1  LIG1        0.0660
    103 H           1.8418    4.3172   -8.8758 H       1  LIG1        0.0637
    104 H           3.5159    3.2517   -7.4826 H       1  LIG1        0.0655
    105 H          -2.0962    6.4317   -9.8880 H       1  LIG1        0.0670
    106 H          -2.4855    3.8972  -11.6227 H       1  LIG1        0.0637
@<TRIPOS>BOND
     1     1    41    1
     2     1    28    1
     3     2    34    2
     4     3    38   ar
     5     4    38   ar
     6     5    41    2
     7     6    48    1
     8     7    50    2
     9     8    53   ar
    10     9    53   ar
    11    10    45    1
    12    10    50   am
    13    11    16    1
    14    11    12    1
    15    11    26    1
    16    11    13    1
    17    12    14    1
    18    13    20    1
    19    13    17    1
    20    13    28    1
    21    14    15    1
    22    14    24    1
    23    14    29    1
    24    15    19    1
    25    15    23    1
    26    16    19    1
    27    17    18    1
    28    17    27    2
    29    18    30    1
    30    18    22    1
    31    20    25    1
    32    21    27    1
    33    21    12    1
    34    22    31    1
    35    22    25    1
    36    22    38    1
    37    23    34    1
    38    23    37    1
    39    23    36    1
    40    24    32    1
    41    30    33    1
    42    31    35    1
    43    32    34    1
    44    33    35    1
    45    33    40    1
    46    33    39    1
    47    41    42    1
    48    42    43    2
    49    43    44    1
    50    44    46   ar
    51    44    45   ar
    52    45    47   ar
    53    46    48   ar
    54    47    49   ar
    55    48    49   ar
    56    50    51    1
    57    51    52    2
    58    52    53    1
    59     6    54    1
    60    10    55    1
    61    12    56    1
    62    15    57    1
    63    16    58    1
    64    16    59    1
    65    18    60    1
    66    19    61    1
    67    19    62    1
    68    20    63    1
    69    20    64    1
    70    21    65    1
    71    21    66    1
    72    24    67    1
    73    24    68    1
    74    25    69    1
    75    25    70    1
    76    26    71    1
    77    26    72    1
    78    26    73    1
    79    27    74    1
    80    28    75    1
    81    28    76    1
    82    29    77    1
    83    29    78    1
    84    29    79    1
    85    30    80    1
    86    30    81    1
    87    31    82    1
    88    31    83    1
    89    32    84    1
    90    32    85    1
    91    35    86    1
    92    35    87    1
    93    36    88    1
    94    36    89    1
    95    36    90    1
    96    37    91    1
    97    37    92    1
    98    37    93    1
    99    39    94    1
   100    39    95    1
   101    39    96    1
   102    40    97    1
   103    40    98    1
   104    40    99    1
   105    42   100    1
   106    43   101    1
   107    46   102    1
   108    47   103    1
   109    49   104    1
   110    51   105    1
   111    52   106    1
@<TRIPOS>MOLECULE
11672244
 106 111 0 0 0
SMALL
GASTEIGER

@<TRIPOS>ATOM
      1 O          -4.7980   -0.0777   -4.8137 O.3     1  LIG1       -0.4607
      2 O          -6.3369    6.5829   -7.1913 O.2     1  LIG1       -0.2968
      3 O          -6.5386   -4.1580   -9.6087 O.co2   1  LIG1       -0.5492
      4 O          -7.4197   -5.2947   -7.8535 O.co2   1  LIG1       -0.5492
      5 O          -4.5317   -1.9274   -3.4639 O.2     1  LIG1       -0.2456
      6 O          -7.2731    3.6832    0.8945 O.3     1  LIG1       -0.5067
      7 O          -1.9585    1.0020   -1.5469 O.2     1  LIG1       -0.2705
      8 O           2.2118    3.2784   -3.2249 O.co2   1  LIG1       -0.5452
      9 O           3.1412    1.6776   -1.8836 O.co2   1  LIG1       -0.5452
     10 N          -2.3909    3.2896   -1.7459 N.am    1  LIG1       -0.2815
     11 C          -6.6889   -0.0069   -7.3724 C.3     1  LIG1       -0.0160
     12 C          -5.8587    1.0664   -8.1687 C.3     1  LIG1       -0.0256
     13 C          -5.6676   -1.2239   -6.9466 C.3     1  LIG1        0.0318
     14 C          -6.5164    2.5088   -8.3787 C.3     1  LIG1       -0.0243
     15 C          -7.0547    2.9916   -6.9869 C.3     1  LIG1       -0.0235
     16 C          -7.3906    0.6366   -6.1469 C.3     1  LIG1       -0.0461
     17 C          -4.9348   -1.7532   -8.2126 C.2     1  LIG1       -0.0596
     18 C          -4.3122   -3.1605   -8.1066 C.3     1  LIG1       -0.0080
     19 C          -8.0715    1.9765   -6.4264 C.3     1  LIG1       -0.0483
     20 C          -6.4879   -2.3560   -6.2544 C.3     1  LIG1       -0.0392
     21 C          -5.2736    0.4370   -9.4544 C.3     1  LIG1       -0.0306
     22 C          -5.2934   -4.2140   -7.5423 C.3     1  LIG1        0.0167
     23 C          -7.5166    4.4848   -6.8862 C.3     1  LIG1        0.0267
     24 C          -5.3892    3.4985   -8.7941 C.3     1  LIG1       -0.0404
     25 C          -5.7917   -3.7151   -6.1649 C.3     1  LIG1       -0.0408
     26 C          -7.8372   -0.5783   -8.2735 C.3     1  LIG1       -0.0584
     27 C          -4.7814   -0.9709   -9.3007 C.2     1  LIG1       -0.0835
     28 C          -4.4684   -0.8070   -6.0019 C.3     1  LIG1        0.1025
     29 C          -7.5959    2.5293   -9.4886 C.3     1  LIG1       -0.0590
     30 C          -3.5251   -3.6664   -9.3429 C.3     1  LIG1       -0.0405
     31 C          -4.5579   -5.5611   -7.3214 C.3     1  LIG1       -0.0412
     32 C          -5.8182    4.9575   -8.8343 C.3     1  LIG1        0.0069
     33 C          -2.8133   -5.0217   -9.1210 C.3     1  LIG1       -0.0343
     34 C          -6.4975    5.4164   -7.5666 C.2     1  LIG1        0.1392
     35 C          -3.8082   -6.0547   -8.5599 C.3     1  LIG1       -0.0470
     36 C          -8.9014    4.7761   -7.4840 C.3     1  LIG1       -0.0528
     37 C          -7.5699    4.8955   -5.3894 C.3     1  LIG1       -0.0528
     38 C          -6.5379   -4.5807   -8.4187 C.2     1  LIG1        0.0485
     39 C          -2.2733   -5.5292  -10.4722 C.3     1  LIG1       -0.0598
     40 C          -1.6070   -4.8539   -8.1731 C.3     1  LIG1       -0.0598
     41 C          -4.6828   -0.7274   -3.6309 C.2     1  LIG1        0.3320
     42 C          -4.8006    0.2098   -2.4942 C.2     1  LIG1        0.0231
     43 C          -4.6769    1.5404   -2.6152 C.2     1  LIG1       -0.0460
     44 C          -4.7263    2.4569   -1.4663 C.ar    1  LIG1       -0.0001
     45 C          -3.6708    3.3378   -1.1515 C.ar    1  LIG1        0.0411
     46 C          -5.9426    2.5702   -0.7694 C.ar    1  LIG1       -0.0113
     47 C          -3.8768    4.3568   -0.2088 C.ar    1  LIG1       -0.0364
     48 C          -6.1046    3.5552    0.2017 C.ar    1  LIG1        0.1175
     49 C          -5.0869    4.4561    0.4774 C.ar    1  LIG1       -0.0184
     50 C          -1.6438    2.1300   -1.8951 C.2     1  LIG1        0.2411
     51 C          -0.2951    2.4646   -2.4164 C.2     1  LIG1        0.0021
     52 C           0.8065    1.8566   -1.9552 C.2     1  LIG1       -0.0344
     53 C           2.1859    2.3080   -2.4162 C.2     1  LIG1        0.0647
     54 H          -7.8619    2.9580    0.6273 H       1  LIG1        0.2921
     55 H          -1.8290    4.1302   -1.6910 H       1  LIG1        0.1551
     56 H          -4.9907    1.2808   -7.5302 H       1  LIG1        0.0315
     57 H          -6.1812    2.9371   -6.3151 H       1  LIG1        0.0315
     58 H          -6.6859    0.8350   -5.3441 H       1  LIG1        0.0271
     59 H          -8.1309   -0.0530   -5.7226 H       1  LIG1        0.0271
     60 H          -3.5312   -3.0350   -7.3445 H       1  LIG1        0.0355
     61 H          -8.9275    1.8399   -7.0926 H       1  LIG1        0.0269
     62 H          -8.4886    2.3274   -5.4775 H       1  LIG1        0.0269
     63 H          -7.4274   -2.5395   -6.7796 H       1  LIG1        0.0275
     64 H          -6.7759   -2.0416   -5.2443 H       1  LIG1        0.0275
     65 H          -6.0086    0.4166  -10.2628 H       1  LIG1        0.0310
     66 H          -4.4332    1.0460   -9.8061 H       1  LIG1        0.0310
     67 H          -4.9929    3.2331   -9.7813 H       1  LIG1        0.0275
     68 H          -4.5508    3.4118   -8.0898 H       1  LIG1        0.0275
     69 H          -6.4854   -4.4333   -5.7092 H       1  LIG1        0.0275
     70 H          -4.9490   -3.6480   -5.4669 H       1  LIG1        0.0275
     71 H          -8.4058    0.1990   -8.7766 H       1  LIG1        0.0235
     72 H          -8.5787   -1.1320   -7.6879 H       1  LIG1        0.0235
     73 H          -7.4763   -1.2548   -9.0528 H       1  LIG1        0.0235
     74 H          -4.2801   -1.3617  -10.1815 H       1  LIG1        0.0572
     75 H          -3.8550   -1.6747   -5.7354 H       1  LIG1        0.0706
     76 H          -3.7762   -0.1551   -6.5487 H       1  LIG1        0.0706
     77 H          -8.5676    2.1673   -9.1530 H       1  LIG1        0.0235
     78 H          -7.3082    1.9480  -10.3662 H       1  LIG1        0.0235
     79 H          -7.7800    3.5313   -9.8789 H       1  LIG1        0.0235
     80 H          -2.7654   -2.9229   -9.6205 H       1  LIG1        0.0276
     81 H          -4.1950   -3.7474  -10.2067 H       1  LIG1        0.0276
     82 H          -5.2556   -6.3461   -7.0022 H       1  LIG1        0.0274
     83 H          -3.8436   -5.4589   -6.4943 H       1  LIG1        0.0274
     84 H          -6.4873    5.1654   -9.6740 H       1  LIG1        0.0342
     85 H          -4.9252    5.5768   -8.9827 H       1  LIG1        0.0342
     86 H          -4.5393   -6.3226   -9.3333 H       1  LIG1        0.0271
     87 H          -3.2812   -6.9840   -8.3078 H       1  LIG1        0.0271
     88 H          -8.9283    4.6698   -8.5688 H       1  LIG1        0.0239
     89 H          -9.1990    5.8130   -7.2823 H       1  LIG1        0.0239
     90 H          -9.6747    4.1308   -7.0559 H       1  LIG1        0.0239
     91 H          -6.6026    4.7327   -4.8999 H       1  LIG1        0.0239
     92 H          -8.3310    4.3400   -4.8340 H       1  LIG1        0.0239
     93 H          -7.8129    5.9583   -5.2704 H       1  LIG1        0.0239
     94 H          -3.0836   -5.6767  -11.1948 H       1  LIG1        0.0235
     95 H          -1.7537   -6.4871  -10.3556 H       1  LIG1        0.0235
     96 H          -1.5650   -4.8155  -10.9081 H       1  LIG1        0.0235
     97 H          -1.8955   -4.5057   -7.1775 H       1  LIG1        0.0235
     98 H          -0.8903   -4.1288   -8.5759 H       1  LIG1        0.0235
     99 H          -1.0761   -5.8038   -8.0425 H       1  LIG1        0.0235
    100 H          -4.8973   -0.2686   -1.5267 H       1  LIG1        0.0689
    101 H          -4.4828    2.0091   -3.5763 H       1  LIG1        0.0626
    102 H          -6.7651    1.9061   -1.0189 H       1  LIG1        0.0660
    103 H          -3.0780    5.0527    0.0350 H       1  LIG1        0.0637
    104 H          -5.2271    5.2262    1.2296 H       1  LIG1        0.0655
    105 H          -0.2238    3.2631   -3.1477 H       1  LIG1        0.0670
    106 H           0.7493    1.0648   -1.2160 H       1  LIG1        0.0637
@<TRIPOS>BOND
     1     1    41    1
     2     1    28    1
     3     2    34    2
     4     3    38   ar
     5     4    38   ar
     6     5    41    2
     7     6    48    1
     8     7    50    2
     9     8    53   ar
    10     9    53   ar
    11    10    45    1
    12    10    50   am
    13    11    16    1
    14    11    12    1
    15    11    26    1
    16    11    13    1
    17    12    14    1
    18    13    20    1
    19    13    17    1
    20    13    28    1
    21    14    15    1
    22    14    24    1
    23    14    29    1
    24    15    19    1
    25    15    23    1
    26    16    19    1
    27    17    18    1
    28    17    27    2
    29    18    30    1
    30    18    22    1
    31    20    25    1
    32    21    27    1
    33    21    12    1
    34    22    31    1
    35    22    25    1
    36    22    38    1
    37    23    34    1
    38    23    37    1
    39    23    36    1
    40    24    32    1
    41    30    33    1
    42    31    35    1
    43    32    34    1
    44    33    35    1
    45    33    40    1
    46    33    39    1
    47    41    42    1
    48    42    43    2
    49    43    44    1
    50    44    46   ar
    51    44    45   ar
    52    45    47   ar
    53    46    48   ar
    54    47    49   ar
    55    48    49   ar
    56    50    51    1
    57    51    52    2
    58    52    53    1
    59     6    54    1
    60    10    55    1
    61    12    56    1
    62    15    57    1
    63    16    58    1
    64    16    59    1
    65    18    60    1
    66    19    61    1
    67    19    62    1
    68    20    63    1
    69    20    64    1
    70    21    65    1
    71    21    66    1
    72    24    67    1
    73    24    68    1
    74    25    69    1
    75    25    70    1
    76    26    71    1
    77    26    72    1
    78    26    73    1
    79    27    74    1
    80    28    75    1
    81    28    76    1
    82    29    77    1
    83    29    78    1
    84    29    79    1
    85    30    80    1
    86    30    81    1
    87    31    82    1
    88    31    83    1
    89    32    84    1
    90    32    85    1
    91    35    86    1
    92    35    87    1
    93    36    88    1
    94    36    89    1
    95    36    90    1
    96    37    91    1
    97    37    92    1
    98    37    93    1
    99    39    94    1
   100    39    95    1
   101    39    96    1
   102    40    97    1
   103    40    98    1
   104    40    99    1
   105    42   100    1
   106    43   101    1
   107    46   102    1
   108    47   103    1
   109    49   104    1
   110    51   105    1
   111    52   106    1
@<TRIPOS>MOLECULE
11672244
 106 111 0 0 0
SMALL
GASTEIGER

@<TRIPOS>ATOM
      1 O          -5.2561   -0.4406   -4.6753 O.3     1  LIG1       -0.4607
      2 O          -6.3176    6.5650   -7.2298 O.2     1  LIG1       -0.2968
      3 O          -6.4143   -4.1788   -9.7350 O.co2   1  LIG1       -0.5492
      4 O          -7.4610   -5.2067   -8.0024 O.co2   1  LIG1       -0.5492
      5 O          -3.6349   -1.4775   -3.4039 O.2     1  LIG1       -0.2456
      6 O          -7.3891    3.7467    0.5386 O.3     1  LIG1       -0.5067
      7 O          -3.0658   -1.9975    2.9647 O.2     1  LIG1       -0.2705
      8 O          -0.3742    2.0128    4.8514 O.co2   1  LIG1       -0.5452
      9 O          -0.8583    2.4916    2.6681 O.co2   1  LIG1       -0.5452
     10 N          -4.3856   -0.8189    1.5436 N.am    1  LIG1       -0.2815
     11 C          -6.7522   -0.0078   -7.4370 C.3     1  LIG1       -0.0160
     12 C          -5.9010    1.0625   -8.2212 C.3     1  LIG1       -0.0256
     13 C          -5.7522   -1.2389   -6.9863 C.3     1  LIG1        0.0318
     14 C          -6.5526    2.5080   -8.4501 C.3     1  LIG1       -0.0243
     15 C          -7.1101    2.9978   -7.0681 C.3     1  LIG1       -0.0235
     16 C          -7.4572    0.6588   -6.2252 C.3     1  LIG1       -0.0461
     17 C          -4.9359   -1.7399   -8.2092 C.2     1  LIG1       -0.0596
     18 C          -4.3049   -3.1463   -8.0869 C.3     1  LIG1       -0.0080
     19 C          -8.1437    1.9893   -6.5268 C.3     1  LIG1       -0.0483
     20 C          -6.6068   -2.3935   -6.3671 C.3     1  LIG1       -0.0392
     21 C          -5.2893    0.4280   -9.4884 C.3     1  LIG1       -0.0306
     22 C          -5.3128   -4.2093   -7.5886 C.3     1  LIG1        0.0167
     23 C          -7.5554    4.4943   -6.9637 C.3     1  LIG1        0.0267
     24 C          -5.4199    3.4949   -8.8574 C.3     1  LIG1       -0.0404
     25 C          -5.8772   -3.7301   -6.2305 C.3     1  LIG1       -0.0408
     26 C          -7.8843   -0.5778   -8.3523 C.3     1  LIG1       -0.0584
     27 C          -4.7590   -0.9602   -9.2951 C.2     1  LIG1       -0.0835
     28 C          -4.6637   -0.8307   -5.9215 C.3     1  LIG1        0.1025
     29 C          -7.6152    2.5235   -9.5753 C.3     1  LIG1       -0.0590
     30 C          -3.4536   -3.6337   -9.2885 C.3     1  LIG1       -0.0405
     31 C          -4.6023   -5.5664   -7.3630 C.3     1  LIG1       -0.0412
     32 C          -5.8479    4.9546   -8.9024 C.3     1  LIG1        0.0069
     33 C          -2.7704   -5.0042   -9.0649 C.3     1  LIG1       -0.0343
     34 C          -6.5151    5.4127   -7.6287 C.2     1  LIG1        0.1392
     35 C          -3.8016   -6.0390   -8.5773 C.3     1  LIG1       -0.0470
     36 C          -8.9308    4.8019   -7.5716 C.3     1  LIG1       -0.0528
     37 C          -7.6162    4.8981   -5.4647 C.3     1  LIG1       -0.0528
     38 C          -6.5128   -4.5559   -8.5342 C.2     1  LIG1        0.0485
     39 C          -2.1726   -5.4873  -10.4008 C.3     1  LIG1       -0.0598
     40 C          -1.6109   -4.8770   -8.0552 C.3     1  LIG1       -0.0598
     41 C          -4.6443   -0.8120   -3.5309 C.2     1  LIG1        0.3320
     42 C          -5.4069   -0.1680   -2.4393 C.2     1  LIG1        0.0231
     43 C          -4.8886   -0.1003   -1.2058 C.2     1  LIG1       -0.0460
     44 C          -5.4828    0.6488   -0.0781 C.ar    1  LIG1       -0.0001
     45 C          -5.1294    0.3417    1.2503 C.ar    1  LIG1        0.0411
     46 C          -6.2408    1.8125   -0.3123 C.ar    1  LIG1       -0.0113
     47 C          -5.5563    1.1625    2.3070 C.ar    1  LIG1       -0.0364
     48 C          -6.6630    2.6109    0.7509 C.ar    1  LIG1        0.1175
     49 C          -6.3358    2.2889    2.0576 C.ar    1  LIG1       -0.0184
     50 C          -3.3577   -0.9244    2.4488 C.2     1  LIG1        0.2411
     51 C          -2.5436    0.3062    2.6131 C.2     1  LIG1        0.0021
     52 C          -1.7653    0.5416    3.6769 C.2     1  LIG1       -0.0344
     53 C          -0.9154    1.8092    3.7287 C.2     1  LIG1        0.0647
     54 H          -7.3253    3.9747   -0.4031 H       1  LIG1        0.2921
     55 H          -4.6486   -1.6842    1.0908 H       1  LIG1        0.1551
     56 H          -5.0450    1.2788   -7.5682 H       1  LIG1        0.0315
     57 H          -6.2460    2.9354   -6.3848 H       1  LIG1        0.0315
     58 H          -6.7400    0.9000   -5.4437 H       1  LIG1        0.0271
     59 H          -8.1839   -0.0275   -5.7746 H       1  LIG1        0.0271
     60 H          -3.5633   -3.0289   -7.2852 H       1  LIG1        0.0355
     61 H          -8.9851    1.8465   -7.2094 H       1  LIG1        0.0269
     62 H          -8.5798    2.3450   -5.5882 H       1  LIG1        0.0269
     63 H          -7.4973   -2.5925   -6.9656 H       1  LIG1        0.0275
     64 H          -6.9834   -2.1007   -5.3797 H       1  LIG1        0.0275
     65 H          -6.0172    0.3733  -10.3021 H       1  LIG1        0.0310
     66 H          -4.4616    1.0515   -9.8443 H       1  LIG1        0.0310
     67 H          -5.0170    3.2283   -9.8416 H       1  LIG1        0.0275
     68 H          -4.5873    3.4073   -8.1465 H       1  LIG1        0.0275
     69 H          -6.5687   -4.4671   -5.8029 H       1  LIG1        0.0275
     70 H          -5.0677   -3.6349   -5.4955 H       1  LIG1        0.0275
     71 H          -8.4250    0.1930   -8.8931 H       1  LIG1        0.0235
     72 H          -8.6494   -1.1022   -7.7695 H       1  LIG1        0.0235
     73 H          -7.5100   -1.2810   -9.1017 H       1  LIG1        0.0235
     74 H          -4.2148   -1.3453  -10.1530 H       1  LIG1        0.0572
     75 H          -3.9575   -1.6485   -5.7496 H       1  LIG1        0.0706
     76 H          -4.0613    0.0130   -6.2728 H       1  LIG1        0.0706
     77 H          -8.5886    2.1511   -9.2572 H       1  LIG1        0.0235
     78 H          -7.3048    1.9479  -10.4495 H       1  LIG1        0.0235
     79 H          -7.8050    3.5257   -9.9623 H       1  LIG1        0.0235
     80 H          -2.6730   -2.8910   -9.5040 H       1  LIG1        0.0276
     81 H          -4.0732   -3.6852  -10.1911 H       1  LIG1        0.0276
     82 H          -5.3237   -6.3502   -7.0975 H       1  LIG1        0.0274
     83 H          -3.9283   -5.4911   -6.5003 H       1  LIG1        0.0274
     84 H          -6.5237    5.1620   -9.7366 H       1  LIG1        0.0342
     85 H          -4.9557    5.5728   -9.0591 H       1  LIG1        0.0342
     86 H          -4.4977   -6.2797   -9.3910 H       1  LIG1        0.0271
     87 H          -3.2981   -6.9810   -8.3248 H       1  LIG1        0.0271
     88 H          -8.9531    4.6826   -8.6551 H       1  LIG1        0.0239
     89 H          -9.2125    5.8453   -7.3814 H       1  LIG1        0.0239
     90 H          -9.7160    4.1729   -7.1405 H       1  LIG1        0.0239
     91 H          -6.6528    4.7276   -4.9698 H       1  LIG1        0.0239
     92 H          -8.3830    4.3441   -4.9157 H       1  LIG1        0.0239
     93 H          -7.8534    5.9619   -5.3422 H       1  LIG1        0.0239
     94 H          -2.9486   -5.6013  -11.1660 H       1  LIG1        0.0235
     95 H          -1.6765   -6.4576  -10.2844 H       1  LIG1        0.0235
     96 H          -1.4313   -4.7762  -10.7826 H       1  LIG1        0.0235
     97 H          -1.9437   -4.5397   -7.0697 H       1  LIG1        0.0235
     98 H          -0.8605   -4.1603   -8.4082 H       1  LIG1        0.0235
     99 H          -1.1064   -5.8400   -7.9153 H       1  LIG1        0.0235
    100 H          -6.3501    0.2868   -2.7119 H       1  LIG1        0.0689
    101 H          -3.9233   -0.5673   -1.0076 H       1  LIG1        0.0626
    102 H          -6.4721    2.1204   -1.3267 H       1  LIG1        0.0660
    103 H          -5.3028    0.9180    3.3363 H       1  LIG1        0.0637
    104 H          -6.6616    2.9193    2.8792 H       1  LIG1        0.0655
    105 H          -2.5548    1.0099    1.7855 H       1  LIG1        0.0670
    106 H          -1.7213   -0.1464    4.5125 H       1  LIG1        0.0637
@<TRIPOS>BOND
     1     1    41    1
     2     1    28    1
     3     2    34    2
     4     3    38   ar
     5     4    38   ar
     6     5    41    2
     7     6    48    1
     8     7    50    2
     9     8    53   ar
    10     9    53   ar
    11    10    45    1
    12    10    50   am
    13    11    16    1
    14    11    12    1
    15    11    26    1
    16    11    13    1
    17    12    14    1
    18    13    20    1
    19    13    17    1
    20    13    28    1
    21    14    15    1
    22    14    24    1
    23    14    29    1
    24    15    19    1
    25    15    23    1
    26    16    19    1
    27    17    18    1
    28    17    27    2
    29    18    30    1
    30    18    22    1
    31    20    25    1
    32    21    27    1
    33    21    12    1
    34    22    31    1
    35    22    25    1
    36    22    38    1
    37    23    34    1
    38    23    37    1
    39    23    36    1
    40    24    32    1
    41    30    33    1
    42    31    35    1
    43    32    34    1
    44    33    35    1
    45    33    40    1
    46    33    39    1
    47    41    42    1
    48    42    43    2
    49    43    44    1
    50    44    46   ar
    51    44    45   ar
    52    45    47   ar
    53    46    48   ar
    54    47    49   ar
    55    48    49   ar
    56    50    51    1
    57    51    52    2
    58    52    53    1
    59     6    54    1
    60    10    55    1
    61    12    56    1
    62    15    57    1
    63    16    58    1
    64    16    59    1
    65    18    60    1
    66    19    61    1
    67    19    62    1
    68    20    63    1
    69    20    64    1
    70    21    65    1
    71    21    66    1
    72    24    67    1
    73    24    68    1
    74    25    69    1
    75    25    70    1
    76    26    71    1
    77    26    72    1
    78    26    73    1
    79    27    74    1
    80    28    75    1
    81    28    76    1
    82    29    77    1
    83    29    78    1
    84    29    79    1
    85    30    80    1
    86    30    81    1
    87    31    82    1
    88    31    83    1
    89    32    84    1
    90    32    85    1
    91    35    86    1
    92    35    87    1
    93    36    88    1
    94    36    89    1
    95    36    90    1
    96    37    91    1
    97    37    92    1
    98    37    93    1
    99    39    94    1
   100    39    95    1
   101    39    96    1
   102    40    97    1
   103    40    98    1
   104    40    99    1
   105    42   100    1
   106    43   101    1
   107    46   102    1
   108    47   103    1
   109    49   104    1
   110    51   105    1
   111    52   106    1
@<TRIPOS>MOLECULE
11672244
 106 111 0 0 0
SMALL
GASTEIGER

@<TRIPOS>ATOM
      1 O          -5.2080   -0.3168   -4.7184 O.3     1  LIG1       -0.4607
      2 O          -6.3011    6.5581   -7.2035 O.2     1  LIG1       -0.2968
      3 O          -6.4218   -4.1536   -9.7415 O.co2   1  LIG1       -0.5492
      4 O          -7.4760   -5.1765   -8.0125 O.co2   1  LIG1       -0.5492
      5 O          -3.9625   -1.7265   -3.3840 O.2     1  LIG1       -0.2456
      6 O          -6.9058    3.8832    0.7129 O.3     1  LIG1       -0.5067
      7 O          -4.4387   -3.1408    2.5286 O.2     1  LIG1       -0.2705
      8 O          -0.5621   -1.0271    5.0064 O.co2   1  LIG1       -0.5452
      9 O          -1.4619    0.6985    3.8095 O.co2   1  LIG1       -0.5452
     10 N          -5.3396   -1.3990    1.4243 N.am    1  LIG1       -0.2815
     11 C          -6.7553   -0.0022   -7.4447 C.3     1  LIG1       -0.0160
     12 C          -5.9022    1.0704   -8.2220 C.3     1  LIG1       -0.0256
     13 C          -5.7489   -1.2268   -6.9877 C.3     1  LIG1        0.0318
     14 C          -6.5536    2.5144   -8.4527 C.3     1  LIG1       -0.0243
     15 C          -7.1212    3.0001   -7.0734 C.3     1  LIG1       -0.0235
     16 C          -7.4824    0.6582   -6.2415 C.3     1  LIG1       -0.0461
     17 C          -4.9354   -1.7323   -8.2108 C.2     1  LIG1       -0.0596
     18 C          -4.3071   -3.1391   -8.0871 C.3     1  LIG1       -0.0080
     19 C          -8.1622    1.9918   -6.5456 C.3     1  LIG1       -0.0483
     20 C          -6.5980   -2.3762   -6.3540 C.3     1  LIG1       -0.0392
     21 C          -5.2813    0.4383   -9.4866 C.3     1  LIG1       -0.0306
     22 C          -5.3206   -4.1980   -7.5917 C.3     1  LIG1        0.0167
     23 C          -7.5633    4.4975   -6.9669 C.3     1  LIG1        0.0267
     24 C          -5.4185    3.5021   -8.8517 C.3     1  LIG1       -0.0404
     25 C          -5.8787   -3.7199   -6.2305 C.3     1  LIG1       -0.0408
     26 C          -7.8767   -0.5791   -8.3703 C.3     1  LIG1       -0.0584
     27 C          -4.7546   -0.9517   -9.2955 C.2     1  LIG1       -0.0835
     28 C          -4.6462   -0.8085   -5.9411 C.3     1  LIG1        0.1025
     29 C          -7.6086    2.5300   -9.5849 C.3     1  LIG1       -0.0590
     30 C          -3.4555   -3.6274   -9.2879 C.3     1  LIG1       -0.0405
     31 C          -4.6174   -5.5601   -7.3712 C.3     1  LIG1       -0.0412
     32 C          -5.8459    4.9619   -8.8943 C.3     1  LIG1        0.0069
     33 C          -2.7793   -5.0017   -9.0675 C.3     1  LIG1       -0.0343
     34 C          -6.5122    5.4138   -7.6180 C.2     1  LIG1        0.1392
     35 C          -3.8167   -6.0328   -8.5854 C.3     1  LIG1       -0.0470
     36 C          -8.9313    4.8115   -7.5879 C.3     1  LIG1       -0.0528
     37 C          -7.6382    4.8961   -5.4672 C.3     1  LIG1       -0.0528
     38 C          -6.5220   -4.5329   -8.5400 C.2     1  LIG1        0.0485
     39 C          -2.1816   -5.4831  -10.4042 C.3     1  LIG1       -0.0598
     40 C          -1.6209   -4.8832   -8.0555 C.3     1  LIG1       -0.0598
     41 C          -4.7977   -0.8585   -3.5532 C.2     1  LIG1        0.3320
     42 C          -5.5278   -0.1362   -2.4896 C.2     1  LIG1        0.0231
     43 C          -5.1486   -0.2689   -1.2123 C.2     1  LIG1       -0.0460
     44 C          -5.7239    0.4845   -0.0802 C.ar    1  LIG1       -0.0001
     45 C          -5.6915   -0.0517    1.2230 C.ar    1  LIG1        0.0411
     46 C          -6.1268    1.8221   -0.2469 C.ar    1  LIG1       -0.0113
     47 C          -6.0839    0.7304    2.3194 C.ar    1  LIG1       -0.0364
     48 C          -6.5183    2.5825    0.8540 C.ar    1  LIG1        0.1175
     49 C          -6.5055    2.0456    2.1323 C.ar    1  LIG1       -0.0184
     50 C          -4.4629   -1.9264    2.3401 C.2     1  LIG1        0.2411
     51 C          -3.4665   -0.9988    2.9364 C.2     1  LIG1        0.0021
     52 C          -2.4944   -1.4360    3.7486 C.2     1  LIG1       -0.0344
     53 C          -1.4029   -0.4901    4.2312 C.2     1  LIG1        0.0647
     54 H          -6.6793    4.1732   -0.1858 H       1  LIG1        0.2921
     55 H          -5.6200   -2.0765    0.7262 H       1  LIG1        0.1551
     56 H          -5.0512    1.2876   -7.5626 H       1  LIG1        0.0315
     57 H          -6.2632    2.9328   -6.3828 H       1  LIG1        0.0315
     58 H          -6.7846    0.8953   -5.4435 H       1  LIG1        0.0271
     59 H          -8.2171   -0.0305   -5.8074 H       1  LIG1        0.0271
     60 H          -3.5673   -3.0239   -7.2835 H       1  LIG1        0.0355
     61 H          -8.9974    1.8527   -7.2364 H       1  LIG1        0.0269
     62 H          -8.6066    2.3454   -5.6101 H       1  LIG1        0.0269
     63 H          -7.5005   -2.5690   -6.9367 H       1  LIG1        0.0275
     64 H          -6.9545   -2.0794   -5.3603 H       1  LIG1        0.0275
     65 H          -6.0036    0.3869  -10.3056 H       1  LIG1        0.0310
     66 H          -4.4503    1.0617   -9.8348 H       1  LIG1        0.0310
     67 H          -5.0108    3.2382   -9.8347 H       1  LIG1        0.0275
     68 H          -4.5894    3.4124   -8.1370 H       1  LIG1        0.0275
     69 H          -6.5749   -4.4542   -5.8056 H       1  LIG1        0.0275
     70 H          -5.0666   -3.6356   -5.4973 H       1  LIG1        0.0275
     71 H          -8.4150    0.1897   -8.9167 H       1  LIG1        0.0235
     72 H          -8.6453   -1.1064   -7.7946 H       1  LIG1        0.0235
     73 H          -7.4936   -1.2820   -9.1152 H       1  LIG1        0.0235
     74 H          -4.2110   -1.3377  -10.1532 H       1  LIG1        0.0572
     75 H          -3.9656   -1.6394   -5.7320 H       1  LIG1        0.0706
     76 H          -4.0100   -0.0106   -6.3378 H       1  LIG1        0.0706
     77 H          -8.5829    2.1528   -9.2751 H       1  LIG1        0.0235
     78 H          -7.2904    1.9585  -10.4588 H       1  LIG1        0.0235
     79 H          -7.7986    3.5327   -9.9701 H       1  LIG1        0.0235
     80 H          -2.6711   -2.8875   -9.4993 H       1  LIG1        0.0276
     81 H          -4.0731   -3.6735  -10.1922 H       1  LIG1        0.0276
     82 H          -5.3438   -6.3409   -7.1100 H       1  LIG1        0.0274
     83 H          -3.9443   -5.4922   -6.5070 H       1  LIG1        0.0274
     84 H          -6.5216    5.1721   -9.7277 H       1  LIG1        0.0342
     85 H          -4.9534    5.5803   -9.0488 H       1  LIG1        0.0342
     86 H          -4.5124   -6.2675   -9.4012 H       1  LIG1        0.0271
     87 H          -3.3183   -6.9781   -8.3350 H       1  LIG1        0.0271
     88 H          -8.9417    4.6999   -8.6723 H       1  LIG1        0.0239
     89 H          -9.2134    5.8539   -7.3936 H       1  LIG1        0.0239
     90 H          -9.7221    4.1807   -7.1700 H       1  LIG1        0.0239
     91 H          -6.6800    4.7222   -4.9632 H       1  LIG1        0.0239
     92 H          -8.4117    4.3419   -4.9280 H       1  LIG1        0.0239
     93 H          -7.8743    5.9600   -5.3440 H       1  LIG1        0.0239
     94 H          -2.9571   -5.5915  -11.1707 H       1  LIG1        0.0235
     95 H          -1.6895   -6.4556  -10.2902 H       1  LIG1        0.0235
     96 H          -1.4371   -4.7736  -10.7829 H       1  LIG1        0.0235
     97 H          -1.9538   -4.5473   -7.0696 H       1  LIG1        0.0235
     98 H          -0.8664   -4.1692   -8.4051 H       1  LIG1        0.0235
     99 H          -1.1212   -5.8491   -7.9179 H       1  LIG1        0.0235
    100 H          -6.3317    0.5165   -2.8037 H       1  LIG1        0.0689
    101 H          -4.3233   -0.9373   -0.9642 H       1  LIG1        0.0626
    102 H          -6.1006    2.2810   -1.2298 H       1  LIG1        0.0660
    103 H          -6.0842    0.3139    3.3244 H       1  LIG1        0.0637
    104 H          -6.8053    2.6490    2.9839 H       1  LIG1        0.0655
    105 H          -3.4664    0.0377    2.6199 H       1  LIG1        0.0670
    106 H          -2.4307   -2.4765    4.0483 H       1  LIG1        0.0637
@<TRIPOS>BOND
     1     1    41    1
     2     1    28    1
     3     2    34    2
     4     3    38   ar
     5     4    38   ar
     6     5    41    2
     7     6    48    1
     8     7    50    2
     9     8    53   ar
    10     9    53   ar
    11    10    45    1
    12    10    50   am
    13    11    16    1
    14    11    12    1
    15    11    26    1
    16    11    13    1
    17    12    14    1
    18    13    20    1
    19    13    17    1
    20    13    28    1
    21    14    15    1
    22    14    24    1
    23    14    29    1
    24    15    19    1
    25    15    23    1
    26    16    19    1
    27    17    18    1
    28    17    27    2
    29    18    30    1
    30    18    22    1
    31    20    25    1
    32    21    27    1
    33    21    12    1
    34    22    31    1
    35    22    25    1
    36    22    38    1
    37    23    34    1
    38    23    37    1
    39    23    36    1
    40    24    32    1
    41    30    33    1
    42    31    35    1
    43    32    34    1
    44    33    35    1
    45    33    40    1
    46    33    39    1
    47    41    42    1
    48    42    43    2
    49    43    44    1
    50    44    46   ar
    51    44    45   ar
    52    45    47   ar
    53    46    48   ar
    54    47    49   ar
    55    48    49   ar
    56    50    51    1
    57    51    52    2
    58    52    53    1
    59     6    54    1
    60    10    55    1
    61    12    56    1
    62    15    57    1
    63    16    58    1
    64    16    59    1
    65    18    60    1
    66    19    61    1
    67    19    62    1
    68    20    63    1
    69    20    64    1
    70    21    65    1
    71    21    66    1
    72    24    67    1
    73    24    68    1
    74    25    69    1
    75    25    70    1
    76    26    71    1
    77    26    72    1
    78    26    73    1
    79    27    74    1
    80    28    75    1
    81    28    76    1
    82    29    77    1
    83    29    78    1
    84    29    79    1
    85    30    80    1
    86    30    81    1
    87    31    82    1
    88    31    83    1
    89    32    84    1
    90    32    85    1
    91    35    86    1
    92    35    87    1
    93    36    88    1
    94    36    89    1
    95    36    90    1
    96    37    91    1
    97    37    92    1
    98    37    93    1
    99    39    94    1
   100    39    95    1
   101    39    96    1
   102    40    97    1
   103    40    98    1
   104    40    99    1
   105    42   100    1
   106    43   101    1
   107    46   102    1
   108    47   103    1
   109    49   104    1
   110    51   105    1
   111    52   106    1
@<TRIPOS>MOLECULE
11672244
 106 111 0 0 0
SMALL
GASTEIGER

@<TRIPOS>ATOM
      1 O          -3.7148    0.1657   -6.2313 O.3     1  LIG1       -0.4607
      2 O          -6.1400    6.5777   -7.2461 O.2     1  LIG1       -0.2968
      3 O          -6.4411   -4.1049   -9.6633 O.co2   1  LIG1       -0.5492
      4 O          -7.2984   -5.3759   -7.9898 O.co2   1  LIG1       -0.5492
      5 O          -4.2227    1.5404   -4.4548 O.2     1  LIG1       -0.2456
      6 O          -0.8735    7.0588   -8.0016 O.3     1  LIG1       -0.5067
      7 O          -0.2823    2.6979   -3.1736 O.2     1  LIG1       -0.2705
      8 O           3.4469   -0.6955   -2.7957 O.co2   1  LIG1       -0.5452
      9 O           3.9279    0.5435   -0.9349 O.co2   1  LIG1       -0.5452
     10 N           0.9457    2.6252   -5.1647 N.am    1  LIG1       -0.2815
     11 C          -6.7291    0.0488   -7.4085 C.3     1  LIG1       -0.0160
     12 C          -5.9142    1.0985   -8.2492 C.3     1  LIG1       -0.0256
     13 C          -5.7361   -1.1867   -6.9756 C.3     1  LIG1        0.0318
     14 C          -6.5589    2.5443   -8.4604 C.3     1  LIG1       -0.0243
     15 C          -7.0329    3.0571   -7.0526 C.3     1  LIG1       -0.0235
     16 C          -7.3545    0.7224   -6.1591 C.3     1  LIG1       -0.0461
     17 C          -4.9333   -1.6926   -8.2020 C.2     1  LIG1       -0.0596
     18 C          -4.2797   -3.0863   -8.0655 C.3     1  LIG1       -0.0080
     19 C          -8.0336    2.0643   -6.4285 C.3     1  LIG1       -0.0483
     20 C          -6.6029   -2.3542   -6.3860 C.3     1  LIG1       -0.0392
     21 C          -5.3530    0.4392   -9.5250 C.3     1  LIG1       -0.0306
     22 C          -5.2617   -4.1713   -7.5564 C.3     1  LIG1        0.0167
     23 C          -7.4670    4.5585   -6.9553 C.3     1  LIG1        0.0267
     24 C          -5.4364    3.5120   -8.9405 C.3     1  LIG1       -0.0404
     25 C          -5.8759   -3.6904   -6.2226 C.3     1  LIG1       -0.0408
     26 C          -7.9136   -0.5053   -8.2655 C.3     1  LIG1       -0.0584
     27 C          -4.7996   -0.9372   -9.3117 C.2     1  LIG1       -0.0835
     28 C          -4.6971   -0.8101   -5.8415 C.3     1  LIG1        0.1025
     29 C          -7.6786    2.5534   -9.5280 C.3     1  LIG1       -0.0590
     30 C          -3.4401   -3.5765   -9.2757 C.3     1  LIG1       -0.0405
     31 C          -4.4936   -5.4889   -7.2856 C.3     1  LIG1       -0.0412
     32 C          -5.8413    4.9782   -8.9662 C.3     1  LIG1        0.0069
     33 C          -2.7182   -4.9263   -9.0461 C.3     1  LIG1       -0.0343
     34 C          -6.4197    5.4458   -7.6529 C.2     1  LIG1        0.1392
     35 C          -3.7027   -5.9774   -8.4993 C.3     1  LIG1       -0.0470
     36 C          -8.8469    4.8731   -7.5502 C.3     1  LIG1       -0.0528
     37 C          -7.5059    4.9843   -5.4634 C.3     1  LIG1       -0.0528
     38 C          -6.4480   -4.5832   -8.4955 C.2     1  LIG1        0.0485
     39 C          -2.1563   -5.4267  -10.3917 C.3     1  LIG1       -0.0598
     40 C          -1.5282   -4.7454   -8.0818 C.3     1  LIG1       -0.0598
     41 C          -3.5535    1.2452   -5.4296 C.2     1  LIG1        0.3320
     42 C          -2.4537    2.0572   -5.9885 C.2     1  LIG1        0.0231
     43 C          -2.0568    3.1776   -5.3675 C.2     1  LIG1       -0.0460
     44 C          -0.9900    4.0248   -5.9153 C.ar    1  LIG1       -0.0001
     45 C           0.3823    3.7036   -5.8806 C.ar    1  LIG1        0.0411
     46 C          -1.4126    5.1636   -6.6263 C.ar    1  LIG1       -0.0113
     47 C           1.2867    4.4798   -6.6248 C.ar    1  LIG1       -0.0364
     48 C          -0.4881    5.9459   -7.3125 C.ar    1  LIG1        0.1175
     49 C           0.8550    5.6043   -7.3295 C.ar    1  LIG1       -0.0184
     50 C           0.5666    2.2054   -3.9021 C.2     1  LIG1        0.2411
     51 C           1.4658    1.1199   -3.4484 C.2     1  LIG1        0.0021
     52 C           2.2417    1.2977   -2.3693 C.2     1  LIG1       -0.0344
     53 C           3.2938    0.2652   -1.9919 C.2     1  LIG1        0.0647
     54 H          -1.8196    7.2061   -7.8312 H       1  LIG1        0.2921
     55 H           1.8829    2.3399   -5.4246 H       1  LIG1        0.1551
     56 H          -5.0325    1.3257   -7.6487 H       1  LIG1        0.0315
     57 H          -6.1319    3.0035   -6.4183 H       1  LIG1        0.0315
     58 H          -6.5919    0.9169   -5.4031 H       1  LIG1        0.0271
     59 H          -8.0794    0.0504   -5.6837 H       1  LIG1        0.0271
     60 H          -3.5355   -2.9430   -7.2693 H       1  LIG1        0.0355
     61 H          -8.9202    1.9265   -7.0533 H       1  LIG1        0.0269
     62 H          -8.4023    2.4333   -5.4670 H       1  LIG1        0.0269
     63 H          -7.4698   -2.5640   -7.0157 H       1  LIG1        0.0275
     64 H          -7.0070   -2.0583   -5.4098 H       1  LIG1        0.0275
     65 H          -6.1121    0.3590  -10.3076 H       1  LIG1        0.0310
     66 H          -4.5452    1.0592   -9.9298 H       1  LIG1        0.0310
     67 H          -5.0968    3.2345   -9.9453 H       1  LIG1        0.0275
     68 H          -4.5643    3.4152   -8.2798 H       1  LIG1        0.0275
     69 H          -6.5847   -4.4254   -5.8203 H       1  LIG1        0.0275
     70 H          -5.0969   -3.6010   -5.4562 H       1  LIG1        0.0275
     71 H          -8.4726    0.2731   -8.7765 H       1  LIG1        0.0235
     72 H          -8.6564   -1.0196   -7.6460 H       1  LIG1        0.0235
     73 H          -7.5830   -1.2103   -9.0342 H       1  LIG1        0.0235
     74 H          -4.2686   -1.3327  -10.1727 H       1  LIG1        0.0572
     75 H          -5.2165   -0.5261   -4.9204 H       1  LIG1        0.0706
     76 H          -4.1076   -1.6875   -5.5584 H       1  LIG1        0.0706
     77 H          -8.6511    2.2566   -9.1340 H       1  LIG1        0.0235
     78 H          -7.4507    1.9063  -10.3772 H       1  LIG1        0.0235
     79 H          -7.8324    3.5387   -9.9712 H       1  LIG1        0.0235
     80 H          -2.6835   -2.8193   -9.5234 H       1  LIG1        0.0276
     81 H          -4.0795   -3.6618  -10.1621 H       1  LIG1        0.0276
     82 H          -5.1743   -6.2893   -6.9686 H       1  LIG1        0.0274
     83 H          -3.8042   -5.3474   -6.4434 H       1  LIG1        0.0274
     84 H          -6.5638    5.1963   -9.7573 H       1  LIG1        0.0342
     85 H          -4.9500    5.5811   -9.1785 H       1  LIG1        0.0342
     86 H          -4.4079   -6.2699   -9.2878 H       1  LIG1        0.0271
     87 H          -3.1618   -6.8925   -8.2257 H       1  LIG1        0.0271
     88 H          -8.8755    4.7768   -8.6359 H       1  LIG1        0.0239
     89 H          -9.1308    5.9118   -7.3393 H       1  LIG1        0.0239
     90 H          -9.6277    4.2331   -7.1272 H       1  LIG1        0.0239
     91 H          -6.5476    4.7858   -4.9696 H       1  LIG1        0.0239
     92 H          -8.2917    4.4669   -4.9054 H       1  LIG1        0.0239
     93 H          -7.7054    6.0573   -5.3556 H       1  LIG1        0.0239
     94 H          -2.9568   -5.5809  -11.1241 H       1  LIG1        0.0235
     95 H          -1.6301   -6.3804  -10.2706 H       1  LIG1        0.0235
     96 H          -1.4500   -4.7059  -10.8186 H       1  LIG1        0.0235
     97 H          -1.8362   -4.3901   -7.0946 H       1  LIG1        0.0235
     98 H          -0.8086   -4.0205   -8.4794 H       1  LIG1        0.0235
     99 H          -0.9949   -5.6918   -7.9357 H       1  LIG1        0.0235
    100 H          -1.9987    1.7089   -6.9080 H       1  LIG1        0.0689
    101 H          -2.5059    3.5083   -4.4330 H       1  LIG1        0.0626
    102 H          -2.4699    5.4145   -6.6526 H       1  LIG1        0.0660
    103 H           2.3474    4.2408   -6.6247 H       1  LIG1        0.0637
    104 H           1.5685    6.2145   -7.8746 H       1  LIG1        0.0655
    105 H           1.5443    0.2376   -4.0741 H       1  LIG1        0.0670
    106 H           2.1721    2.1943   -1.7641 H       1  LIG1        0.0637
@<TRIPOS>BOND
     1     1    41    1
     2     1    28    1
     3     2    34    2
     4     3    38   ar
     5     4    38   ar
     6     5    41    2
     7     6    48    1
     8     7    50    2
     9     8    53   ar
    10     9    53   ar
    11    10    45    1
    12    10    50   am
    13    11    16    1
    14    11    12    1
    15    11    26    1
    16    11    13    1
    17    12    14    1
    18    13    20    1
    19    13    17    1
    20    13    28    1
    21    14    15    1
    22    14    24    1
    23    14    29    1
    24    15    19    1
    25    15    23    1
    26    16    19    1
    27    17    18    1
    28    17    27    2
    29    18    30    1
    30    18    22    1
    31    20    25    1
    32    21    27    1
    33    21    12    1
    34    22    31    1
    35    22    25    1
    36    22    38    1
    37    23    34    1
    38    23    37    1
    39    23    36    1
    40    24    32    1
    41    30    33    1
    42    31    35    1
    43    32    34    1
    44    33    35    1
    45    33    40    1
    46    33    39    1
    47    41    42    1
    48    42    43    2
    49    43    44    1
    50    44    46   ar
    51    44    45   ar
    52    45    47   ar
    53    46    48   ar
    54    47    49   ar
    55    48    49   ar
    56    50    51    1
    57    51    52    2
    58    52    53    1
    59     6    54    1
    60    10    55    1
    61    12    56    1
    62    15    57    1
    63    16    58    1
    64    16    59    1
    65    18    60    1
    66    19    61    1
    67    19    62    1
    68    20    63    1
    69    20    64    1
    70    21    65    1
    71    21    66    1
    72    24    67    1
    73    24    68    1
    74    25    69    1
    75    25    70    1
    76    26    71    1
    77    26    72    1
    78    26    73    1
    79    27    74    1
    80    28    75    1
    81    28    76    1
    82    29    77    1
    83    29    78    1
    84    29    79    1
    85    30    80    1
    86    30    81    1
    87    31    82    1
    88    31    83    1
    89    32    84    1
    90    32    85    1
    91    35    86    1
    92    35    87    1
    93    36    88    1
    94    36    89    1
    95    36    90    1
    96    37    91    1
    97    37    92    1
    98    37    93    1
    99    39    94    1
   100    39    95    1
   101    39    96    1
   102    40    97    1
   103    40    98    1
   104    40    99    1
   105    42   100    1
   106    43   101    1
   107    46   102    1
   108    47   103    1
   109    49   104    1
   110    51   105    1
   111    52   106    1
