@<TRIPOS>MOLECULE
01012527H
 86 88 0 0 0
SMALL
GASTEIGER

@<TRIPOS>ATOM
      1 C          -0.8695    2.9835    5.4664 C.3     1  LIG1        0.0531
      2 C          -1.0607    2.0696    4.2647 C.3     1  LIG1       -0.0111
      3 C          -2.2408    3.3570    6.0110 C.3     1  LIG1        0.0375
      4 C          -0.1090    2.0309    6.3830 C.2     1  LIG1        0.0509
      5 N          -2.5057    1.5274    4.4180 N.4     1  LIG1        0.2448
      6 C          -0.9794    2.6946    2.8541 C.3     1  LIG1       -0.0039
      7 C          -2.6686    4.7406    5.5345 C.ar    1  LIG1       -0.0313
      8 C          -3.1372    2.1783    5.6415 C.3     1  LIG1       -0.0234
      9 O           1.1355    2.0295    6.2069 O.co2   1  LIG1       -0.5493
     10 O          -0.8272    1.2837    7.0984 O.co2   1  LIG1       -0.5493
     11 C          -2.5077   -0.0037    4.5122 C.3     1  LIG1        0.0465
     12 C           0.4048    3.1536    2.2892 C.3     1  LIG1       -0.0298
     13 C          -3.3507    4.9742    4.3337 C.ar    1  LIG1       -0.0122
     14 C          -2.2961    5.8551    6.3385 C.ar    1  LIG1       -0.0124
     15 C          -3.9173   -0.6185    4.5254 C.2     1  LIG1        0.2608
     16 C           1.4802    2.0498    2.4851 C.3     1  LIG1       -0.0479
     17 C           0.1908    3.4228    0.7795 C.3     1  LIG1       -0.0596
     18 C           0.8573    4.4754    2.9349 C.3     1  LIG1       -0.0596
     19 C          -3.5801    6.2839    3.9562 C.ar    1  LIG1        0.1702
     20 C          -2.5874    7.1721    5.9592 C.ar    1  LIG1        0.1656
     21 N          -4.0271   -2.0080    4.4794 N.am    1  LIG1       -0.2971
     22 O          -4.9068    0.1207    4.5717 O.2     1  LIG1       -0.2697
     23 C           2.8593    2.3530    1.8840 C.3     1  LIG1       -0.0554
     24 C          -3.2080    7.3507    4.7388 C.ar    1  LIG1        0.2075
     25 O          -4.1718    6.6688    2.7929 O.3     1  LIG1       -0.4525
     26 O          -2.2801    8.2936    6.6722 O.3     1  LIG1       -0.4913
     27 C          -2.9360   -2.9012    4.0571 C.3     1  LIG1        0.0148
     28 C          -5.3635   -2.5968    4.6288 C.3     1  LIG1        0.0148
     29 C           3.8540    1.2424    2.1924 C.3     1  LIG1       -0.0653
     30 O          -3.5323    8.5432    4.1623 O.3     1  LIG1       -0.4489
     31 C          -4.0794    8.1047    2.9065 C.3     1  LIG1        0.2334
     32 C          -2.0223    8.1090    8.0592 C.3     1  LIG1        0.0790
     33 C          -2.0113   -3.3354    5.1929 C.3     1  LIG1       -0.0374
     34 C          -5.9182   -2.5554    6.0588 C.3     1  LIG1       -0.0374
     35 C          -0.8222   -4.1662    4.7014 C.3     1  LIG1       -0.0545
     36 C          -5.1249   -3.4214    7.0353 C.3     1  LIG1       -0.0545
     37 C          -1.2233   -5.5512    4.2158 C.3     1  LIG1       -0.0652
     38 C          -5.8346   -3.5660    8.3731 C.3     1  LIG1       -0.0652
     39 H          -0.2425    3.8558    5.2811 H       1  LIG1        0.0424
     40 H          -0.4091    1.1873    4.2650 H       1  LIG1        0.0858
     41 H          -2.2294    3.4113    7.1089 H       1  LIG1        0.0409
     42 H          -3.0915    1.7781    3.6163 H       1  LIG1        0.2042
     43 H          -1.6786    3.5320    2.7754 H       1  LIG1        0.0325
     44 H          -1.3671    1.9350    2.1573 H       1  LIG1        0.0325
     45 H          -4.1595    2.4677    5.3792 H       1  LIG1        0.0821
     46 H          -3.1814    1.4344    6.4438 H       1  LIG1        0.0821
     47 H          -1.9705   -0.2824    5.4197 H       1  LIG1        0.0913
     48 H          -1.9747   -0.3428    3.6214 H       1  LIG1        0.0913
     49 H          -3.6767    4.1789    3.6772 H       1  LIG1        0.0658
     50 H          -1.7507    5.6639    7.2603 H       1  LIG1        0.0658
     51 H           1.1106    1.1083    2.0584 H       1  LIG1        0.0270
     52 H           1.6206    1.8700    3.5565 H       1  LIG1        0.0270
     53 H          -0.6368    4.1227    0.6182 H       1  LIG1        0.0235
     54 H          -0.0472    2.4961    0.2437 H       1  LIG1        0.0235
     55 H           1.0776    3.8604    0.3088 H       1  LIG1        0.0235
     56 H           0.0226    5.1790    3.0304 H       1  LIG1        0.0235
     57 H           1.6263    4.9729    2.3339 H       1  LIG1        0.0235
     58 H           1.2903    4.3152    3.9254 H       1  LIG1        0.0235
     59 H           3.2542    3.2924    2.2854 H       1  LIG1        0.0263
     60 H           2.7888    2.4625    0.7968 H       1  LIG1        0.0263
     61 H          -2.3551   -2.3900    3.2823 H       1  LIG1        0.0464
     62 H          -3.3754   -3.7759    3.5661 H       1  LIG1        0.0464
     63 H          -5.3576   -3.6312    4.2688 H       1  LIG1        0.0464
     64 H          -6.0467   -2.0424    3.9727 H       1  LIG1        0.0464
     65 H           3.9817    1.1185    3.2723 H       1  LIG1        0.0230
     66 H           4.8317    1.4805    1.7608 H       1  LIG1        0.0230
     67 H           3.5200    0.2890    1.7723 H       1  LIG1        0.0230
     68 H          -5.0809    8.5311    2.7905 H       1  LIG1        0.1166
     69 H          -3.4427    8.4798    2.0953 H       1  LIG1        0.1166
     70 H          -1.9799    9.0971    8.5262 H       1  LIG1        0.0660
     71 H          -1.0540    7.6241    8.2154 H       1  LIG1        0.0660
     72 H          -2.8284    7.5463    8.5448 H       1  LIG1        0.0660
     73 H          -2.5682   -3.9148    5.9335 H       1  LIG1        0.0280
     74 H          -1.6226   -2.4565    5.7164 H       1  LIG1        0.0280
     75 H          -6.9561   -2.9110    6.0266 H       1  LIG1        0.0280
     76 H          -5.9494   -1.5246    6.4304 H       1  LIG1        0.0280
     77 H          -0.1117   -4.2819    5.5284 H       1  LIG1        0.0263
     78 H          -0.2940   -3.6339    3.9012 H       1  LIG1        0.0263
     79 H          -4.1428   -2.9708    7.2128 H       1  LIG1        0.0263
     80 H          -4.9637   -4.4193    6.6100 H       1  LIG1        0.0263
     81 H          -1.7652   -6.0972    4.9951 H       1  LIG1        0.0230
     82 H          -0.3331   -6.1312    3.9541 H       1  LIG1        0.0230
     83 H          -1.8588   -5.4983    3.3266 H       1  LIG1        0.0230
     84 H          -5.9841   -2.5911    8.8451 H       1  LIG1        0.0230
     85 H          -5.2371   -4.1850    9.0513 H       1  LIG1        0.0230
     86 H          -6.8101   -4.0453    8.2499 H       1  LIG1        0.0230
@<TRIPOS>BOND
     1     1     2    1
     2     1     3    1
     3     1     4    1
     4     2     5    1
     5     2     6    1
     6     3     8    1
     7     3     7    1
     8     4    10   ar
     9     4     9   ar
    10     5     8    1
    11     5    11    1
    12     6    12    1
    13     7    14   ar
    14     7    13   ar
    15    11    15    1
    16    12    18    1
    17    12    17    1
    18    12    16    1
    19    13    19   ar
    20    14    20   ar
    21    15    22    2
    22    15    21   am
    23    16    23    1
    24    19    25    1
    25    19    24   ar
    26    20    24   ar
    27    20    26    1
    28    21    28    1
    29    21    27    1
    30    23    29    1
    31    24    30    1
    32    25    31    1
    33    26    32    1
    34    27    33    1
    35    28    34    1
    36    30    31    1
    37    33    35    1
    38    34    36    1
    39    35    37    1
    40    36    38    1
    41     1    39    1
    42     2    40    1
    43     3    41    1
    44     5    42    1
    45     6    43    1
    46     6    44    1
    47     8    45    1
    48     8    46    1
    49    11    47    1
    50    11    48    1
    51    13    49    1
    52    14    50    1
    53    16    51    1
    54    16    52    1
    55    17    53    1
    56    17    54    1
    57    17    55    1
    58    18    56    1
    59    18    57    1
    60    18    58    1
    61    23    59    1
    62    23    60    1
    63    27    61    1
    64    27    62    1
    65    28    63    1
    66    28    64    1
    67    29    65    1
    68    29    66    1
    69    29    67    1
    70    31    68    1
    71    31    69    1
    72    32    70    1
    73    32    71    1
    74    32    72    1
    75    33    73    1
    76    33    74    1
    77    34    75    1
    78    34    76    1
    79    35    77    1
    80    35    78    1
    81    36    79    1
    82    36    80    1
    83    37    81    1
    84    37    82    1
    85    37    83    1
    86    38    84    1
    87    38    85    1
    88    38    86    1
@<TRIPOS>MOLECULE
01012527H
 86 88 0 0 0
SMALL
GASTEIGER

@<TRIPOS>ATOM
      1 C          -0.7745    2.9386    5.4976 C.3     1  LIG1        0.0531
      2 C          -1.0278    2.1279    4.2341 C.3     1  LIG1       -0.0111
      3 C          -2.1268    3.3487    6.0788 C.3     1  LIG1        0.0375
      4 C          -0.0496    1.8822    6.3267 C.2     1  LIG1        0.0509
      5 N          -2.4700    1.5956    4.4089 N.4     1  LIG1        0.2448
      6 C          -0.9921    2.8654    2.8751 C.3     1  LIG1       -0.0039
      7 C          -2.6846    4.7222    5.6901 C.ar    1  LIG1       -0.0313
      8 C          -3.0413    2.1765    5.6919 C.3     1  LIG1       -0.0234
      9 O           1.1717    1.7583    6.0511 O.co2   1  LIG1       -0.5493
     10 O          -0.7811    1.1805    7.0758 O.co2   1  LIG1       -0.5493
     11 C          -2.4805    0.0628    4.4047 C.3     1  LIG1        0.0465
     12 C           0.3985    3.1535    2.2035 C.3     1  LIG1       -0.0298
     13 C          -1.9184    5.7010    5.0386 C.ar    1  LIG1       -0.0122
     14 C          -3.9953    5.0813    6.1229 C.ar    1  LIG1       -0.0124
     15 C          -3.8832   -0.5571    4.4716 C.2     1  LIG1        0.2608
     16 C           0.1087    3.4242    0.6885 C.3     1  LIG1       -0.0479
     17 C           1.0724    4.3832    2.8314 C.3     1  LIG1       -0.0596
     18 C           1.3473    1.9483    2.3377 C.3     1  LIG1       -0.0596
     19 C          -2.4715    6.9468    4.8158 C.ar    1  LIG1        0.1702
     20 C          -4.5423    6.3514    5.8784 C.ar    1  LIG1        0.1656
     21 N          -3.9792   -1.9501    4.4460 N.am    1  LIG1       -0.2971
     22 O          -4.8763    0.1748    4.5325 O.2     1  LIG1       -0.2697
     23 C           1.3040    3.8343   -0.1817 C.3     1  LIG1       -0.0554
     24 C          -3.7435    7.2661    5.2201 C.ar    1  LIG1        0.2075
     25 O          -1.8382    7.9864    4.2071 O.3     1  LIG1       -0.4525
     26 O          -5.7814    6.7827    6.2516 O.3     1  LIG1       -0.4913
     27 C          -2.8681   -2.8354    4.0629 C.3     1  LIG1        0.0148
     28 C          -5.3068   -2.5557    4.5995 C.3     1  LIG1        0.0148
     29 C           0.9071    3.9405   -1.6481 C.3     1  LIG1       -0.0653
     30 O          -4.0686    8.5536    4.9107 O.3     1  LIG1       -0.4489
     31 C          -2.8379    9.0185    4.3265 C.3     1  LIG1        0.2334
     32 C          -6.6480    5.8356    6.8590 C.3     1  LIG1        0.0790
     33 C          -2.0016   -3.2884    5.2365 C.3     1  LIG1       -0.0374
     34 C          -5.8857   -2.4781    6.0176 C.3     1  LIG1       -0.0374
     35 C          -0.7714   -4.0512    4.7421 C.3     1  LIG1       -0.0545
     36 C          -5.1180   -3.3282    7.0290 C.3     1  LIG1       -0.0545
     37 C           0.1452   -4.4425    5.8898 C.3     1  LIG1       -0.0652
     38 C          -5.8594   -3.4372    8.3525 C.3     1  LIG1       -0.0652
     39 H          -0.0776    3.7665    5.3805 H       1  LIG1        0.0424
     40 H          -0.4000    1.2359    4.1407 H       1  LIG1        0.0858
     41 H          -2.0565    3.3917    7.1749 H       1  LIG1        0.0409
     42 H          -3.0859    1.9104    3.6516 H       1  LIG1        0.2042
     43 H          -1.5680    3.7962    2.9350 H       1  LIG1        0.0325
     44 H          -1.5478    2.2323    2.1669 H       1  LIG1        0.0325
     45 H          -4.0741    2.4620    5.4732 H       1  LIG1        0.0821
     46 H          -3.0590    1.3925    6.4546 H       1  LIG1        0.0821
     47 H          -1.8786   -0.2760    5.2492 H       1  LIG1        0.0913
     48 H          -2.0164   -0.2185    3.4557 H       1  LIG1        0.0913
     49 H          -0.8936    5.5419    4.7301 H       1  LIG1        0.0658
     50 H          -4.5684    4.3563    6.6947 H       1  LIG1        0.0658
     51 H          -0.6558    4.2092    0.6090 H       1  LIG1        0.0270
     52 H          -0.3368    2.5195    0.2520 H       1  LIG1        0.0270
     53 H           1.2954    4.2294    3.8889 H       1  LIG1        0.0235
     54 H           0.4403    5.2722    2.7357 H       1  LIG1        0.0235
     55 H           2.0320    4.6064    2.3531 H       1  LIG1        0.0235
     56 H           1.6094    1.7560    3.3820 H       1  LIG1        0.0235
     57 H           2.2957    2.1142    1.8178 H       1  LIG1        0.0235
     58 H           0.8936    1.0402    1.9266 H       1  LIG1        0.0235
     59 H           2.1166    3.1068   -0.0998 H       1  LIG1        0.0263
     60 H           1.6945    4.8045    0.1418 H       1  LIG1        0.0263
     61 H          -2.2482   -2.3127    3.3283 H       1  LIG1        0.0464
     62 H          -3.2737   -3.7075    3.5364 H       1  LIG1        0.0464
     63 H          -5.2775   -3.6007    4.2709 H       1  LIG1        0.0464
     64 H          -5.9867   -2.0317    3.9163 H       1  LIG1        0.0464
     65 H           0.5580    2.9756   -2.0300 H       1  LIG1        0.0230
     66 H           1.7664    4.2514   -2.2508 H       1  LIG1        0.0230
     67 H           0.1088    4.6761   -1.7879 H       1  LIG1        0.0230
     68 H          -3.0510    9.4177    3.3288 H       1  LIG1        0.1166
     69 H          -2.4352    9.8268    4.9488 H       1  LIG1        0.1166
     70 H          -7.6045    6.3319    7.0500 H       1  LIG1        0.0660
     71 H          -6.2505    5.4974    7.8212 H       1  LIG1        0.0660
     72 H          -6.8387    4.9900    6.1901 H       1  LIG1        0.0660
     73 H          -2.5830   -3.9388    5.8971 H       1  LIG1        0.0280
     74 H          -1.6863   -2.4284    5.8365 H       1  LIG1        0.0280
     75 H          -6.9246   -2.8288    5.9736 H       1  LIG1        0.0280
     76 H          -5.9184   -1.4399    6.3666 H       1  LIG1        0.0280
     77 H          -0.2080   -3.4354    4.0313 H       1  LIG1        0.0263
     78 H          -1.0875   -4.9552    4.2083 H       1  LIG1        0.0263
     79 H          -4.1358   -2.8826    7.2157 H       1  LIG1        0.0263
     80 H          -4.9577   -4.3362    6.6297 H       1  LIG1        0.0263
     81 H           0.5247   -3.5548    6.4065 H       1  LIG1        0.0230
     82 H           1.0039   -5.0073    5.5127 H       1  LIG1        0.0230
     83 H          -0.3801   -5.0674    6.6188 H       1  LIG1        0.0230
     84 H          -6.0181   -2.4500    8.7973 H       1  LIG1        0.0230
     85 H          -5.2824   -4.0412    9.0602 H       1  LIG1        0.0230
     86 H          -6.8348   -3.9159    8.2174 H       1  LIG1        0.0230
@<TRIPOS>BOND
     1     1     2    1
     2     1     3    1
     3     1     4    1
     4     2     5    1
     5     2     6    1
     6     3     8    1
     7     3     7    1
     8     4    10   ar
     9     4     9   ar
    10     5     8    1
    11     5    11    1
    12     6    12    1
    13     7    14   ar
    14     7    13   ar
    15    11    15    1
    16    12    18    1
    17    12    17    1
    18    12    16    1
    19    13    19   ar
    20    14    20   ar
    21    15    22    2
    22    15    21   am
    23    16    23    1
    24    19    25    1
    25    19    24   ar
    26    20    24   ar
    27    20    26    1
    28    21    28    1
    29    21    27    1
    30    23    29    1
    31    24    30    1
    32    25    31    1
    33    26    32    1
    34    27    33    1
    35    28    34    1
    36    30    31    1
    37    33    35    1
    38    34    36    1
    39    35    37    1
    40    36    38    1
    41     1    39    1
    42     2    40    1
    43     3    41    1
    44     5    42    1
    45     6    43    1
    46     6    44    1
    47     8    45    1
    48     8    46    1
    49    11    47    1
    50    11    48    1
    51    13    49    1
    52    14    50    1
    53    16    51    1
    54    16    52    1
    55    17    53    1
    56    17    54    1
    57    17    55    1
    58    18    56    1
    59    18    57    1
    60    18    58    1
    61    23    59    1
    62    23    60    1
    63    27    61    1
    64    27    62    1
    65    28    63    1
    66    28    64    1
    67    29    65    1
    68    29    66    1
    69    29    67    1
    70    31    68    1
    71    31    69    1
    72    32    70    1
    73    32    71    1
    74    32    72    1
    75    33    73    1
    76    33    74    1
    77    34    75    1
    78    34    76    1
    79    35    77    1
    80    35    78    1
    81    36    79    1
    82    36    80    1
    83    37    81    1
    84    37    82    1
    85    37    83    1
    86    38    84    1
    87    38    85    1
    88    38    86    1
@<TRIPOS>MOLECULE
01012527H
 86 88 0 0 0
SMALL
GASTEIGER

@<TRIPOS>ATOM
      1 C          -0.8345    3.1408    5.4963 C.3     1  LIG1        0.0531
      2 C          -1.0565    2.2163    4.3081 C.3     1  LIG1       -0.0111
      3 C          -2.1923    3.5247    6.0647 C.3     1  LIG1        0.0375
      4 C          -0.0507    2.1945    6.3950 C.2     1  LIG1        0.0509
      5 N          -2.4980    1.6748    4.5072 N.4     1  LIG1        0.2448
      6 C          -1.0057    2.8289    2.8897 C.3     1  LIG1       -0.0039
      7 C          -2.6408    4.8901    5.5598 C.ar    1  LIG1       -0.0313
      8 C          -3.0934    2.3395    5.7438 C.3     1  LIG1       -0.0234
      9 O          -0.7465    1.4771    7.1644 O.co2   1  LIG1       -0.5493
     10 O           1.1823    2.1493    6.1498 O.co2   1  LIG1       -0.5493
     11 C          -2.4775    0.1495    4.6378 C.3     1  LIG1        0.0465
     12 C           0.3839    3.1773    2.2522 C.3     1  LIG1       -0.0298
     13 C          -3.3758    5.0905    4.3865 C.ar    1  LIG1       -0.0122
     14 C          -2.2421    6.0244    6.3096 C.ar    1  LIG1       -0.0124
     15 C          -3.8656   -0.4893    4.7511 C.2     1  LIG1        0.2608
     16 C           0.1165    3.4133    0.7272 C.3     1  LIG1       -0.0479
     17 C           0.9747    4.4476    2.8844 C.3     1  LIG1       -0.0596
     18 C           1.3822    2.0198    2.4307 C.3     1  LIG1       -0.0596
     19 C          -3.6350    6.3918    3.9916 C.ar    1  LIG1        0.1702
     20 C          -2.5661    7.3326    5.9218 C.ar    1  LIG1        0.1656
     21 N          -3.9918   -1.8530    4.4872 N.am    1  LIG1       -0.2971
     22 O          -4.8366    0.2119    5.0532 O.2     1  LIG1       -0.2697
     23 C           1.3180    3.8315   -0.1304 C.3     1  LIG1       -0.0554
     24 C          -3.2448    7.4870    4.7310 C.ar    1  LIG1        0.2075
     25 O          -4.2726    6.7321    2.8381 O.3     1  LIG1       -0.4525
     26 O          -2.1303    8.3060    6.7716 O.3     1  LIG1       -0.4913
     27 C          -2.9213   -2.7124    3.9509 C.3     1  LIG1        0.0148
     28 C          -5.3279   -2.4499    4.5983 C.3     1  LIG1        0.0148
     29 C           0.9397    3.9226   -1.6030 C.3     1  LIG1       -0.0653
     30 O          -3.5972    8.6531    4.1181 O.3     1  LIG1       -0.4489
     31 C          -4.1689    8.1666    2.8894 C.3     1  LIG1        0.2334
     32 C          -2.7921    9.5623    6.6823 C.3     1  LIG1        0.0790
     33 C          -1.8003   -3.0036    4.9559 C.3     1  LIG1       -0.0374
     34 C          -6.1275   -2.4114    3.2867 C.3     1  LIG1       -0.0374
     35 C          -0.7566   -3.9821    4.4108 C.3     1  LIG1       -0.0545
     36 C          -6.5787   -1.0027    2.8888 C.3     1  LIG1       -0.0545
     37 C          -1.1808   -5.4330    4.5529 C.3     1  LIG1       -0.0652
     38 C          -7.5071   -1.0156    1.6862 C.3     1  LIG1       -0.0652
     39 H          -0.2145    4.0131    5.2872 H       1  LIG1        0.0424
     40 H          -0.4098    1.3311    4.2997 H       1  LIG1        0.0858
     41 H          -2.1553    3.6078    7.1590 H       1  LIG1        0.0409
     42 H          -3.1048    1.9117    3.7178 H       1  LIG1        0.2042
     43 H          -1.6395    3.7181    2.8416 H       1  LIG1        0.0325
     44 H          -1.4828    2.0981    2.2198 H       1  LIG1        0.0325
     45 H          -4.1261    2.6187    5.5107 H       1  LIG1        0.0821
     46 H          -3.1050    1.6086    6.5592 H       1  LIG1        0.0821
     47 H          -1.8961   -0.0935    5.5283 H       1  LIG1        0.0913
     48 H          -1.9816   -0.2062    3.7321 H       1  LIG1        0.0913
     49 H          -3.7221    4.2782    3.7617 H       1  LIG1        0.0658
     50 H          -1.6664    5.8891    7.2258 H       1  LIG1        0.0658
     51 H          -0.6637    4.1786    0.6189 H       1  LIG1        0.0270
     52 H          -0.3005    2.4910    0.2994 H       1  LIG1        0.0270
     53 H           1.2861    4.2782    3.9168 H       1  LIG1        0.0235
     54 H           0.2526    5.2715    2.8697 H       1  LIG1        0.0235
     55 H           1.8754    4.7838    2.3609 H       1  LIG1        0.0235
     56 H           1.5969    1.8291    3.4857 H       1  LIG1        0.0235
     57 H           2.3469    2.2394    1.9620 H       1  LIG1        0.0235
     58 H           0.9963    1.0938    1.9913 H       1  LIG1        0.0235
     59 H           2.1376    3.1138   -0.0310 H       1  LIG1        0.0263
     60 H           1.6930    4.8093    0.1875 H       1  LIG1        0.0263
     61 H          -2.5145   -2.2243    3.0592 H       1  LIG1        0.0464
     62 H          -3.3699   -3.6533    3.6151 H       1  LIG1        0.0464
     63 H          -5.8925   -1.9406    5.3884 H       1  LIG1        0.0464
     64 H          -5.2056   -3.4883    4.9273 H       1  LIG1        0.0464
     65 H           0.6091    2.9513   -1.9834 H       1  LIG1        0.0230
     66 H           1.8028    4.2422   -2.1956 H       1  LIG1        0.0230
     67 H           0.1342    4.6469   -1.7580 H       1  LIG1        0.0230
     68 H          -5.1704    8.5980    2.7728 H       1  LIG1        0.1166
     69 H          -3.5430    8.5052    2.0530 H       1  LIG1        0.1166
     70 H          -2.5289   10.1371    7.5752 H       1  LIG1        0.0660
     71 H          -3.8808    9.4481    6.6757 H       1  LIG1        0.0660
     72 H          -2.4413   10.1244    5.8131 H       1  LIG1        0.0660
     73 H          -2.2186   -3.3717    5.8985 H       1  LIG1        0.0280
     74 H          -1.2697   -2.0814    5.1961 H       1  LIG1        0.0280
     75 H          -7.0158   -3.0415    3.4141 H       1  LIG1        0.0280
     76 H          -5.5380   -2.8494    2.4733 H       1  LIG1        0.0280
     77 H           0.1792   -3.8436    4.9684 H       1  LIG1        0.0263
     78 H          -0.5326   -3.7585    3.3608 H       1  LIG1        0.0263
     79 H          -5.7083   -0.3843    2.6425 H       1  LIG1        0.0263
     80 H          -7.0981   -0.5263    3.7283 H       1  LIG1        0.0263
     81 H          -1.3562   -5.6849    5.6052 H       1  LIG1        0.0230
     82 H          -0.3912   -6.0946    4.1785 H       1  LIG1        0.0230
     83 H          -2.0951   -5.6432    3.9896 H       1  LIG1        0.0230
     84 H          -7.0160   -1.4572    0.8147 H       1  LIG1        0.0230
     85 H          -7.8032    0.0071    1.4284 H       1  LIG1        0.0230
     86 H          -8.4176   -1.5864    1.8987 H       1  LIG1        0.0230
@<TRIPOS>BOND
     1     1     2    1
     2     1     3    1
     3     1     4    1
     4     2     5    1
     5     2     6    1
     6     3     8    1
     7     3     7    1
     8     4    10   ar
     9     4     9   ar
    10     5     8    1
    11     5    11    1
    12     6    12    1
    13     7    14   ar
    14     7    13   ar
    15    11    15    1
    16    12    18    1
    17    12    17    1
    18    12    16    1
    19    13    19   ar
    20    14    20   ar
    21    15    22    2
    22    15    21   am
    23    16    23    1
    24    19    25    1
    25    19    24   ar
    26    20    24   ar
    27    20    26    1
    28    21    28    1
    29    21    27    1
    30    23    29    1
    31    24    30    1
    32    25    31    1
    33    26    32    1
    34    27    33    1
    35    28    34    1
    36    30    31    1
    37    33    35    1
    38    34    36    1
    39    35    37    1
    40    36    38    1
    41     1    39    1
    42     2    40    1
    43     3    41    1
    44     5    42    1
    45     6    43    1
    46     6    44    1
    47     8    45    1
    48     8    46    1
    49    11    47    1
    50    11    48    1
    51    13    49    1
    52    14    50    1
    53    16    51    1
    54    16    52    1
    55    17    53    1
    56    17    54    1
    57    17    55    1
    58    18    56    1
    59    18    57    1
    60    18    58    1
    61    23    59    1
    62    23    60    1
    63    27    61    1
    64    27    62    1
    65    28    63    1
    66    28    64    1
    67    29    65    1
    68    29    66    1
    69    29    67    1
    70    31    68    1
    71    31    69    1
    72    32    70    1
    73    32    71    1
    74    32    72    1
    75    33    73    1
    76    33    74    1
    77    34    75    1
    78    34    76    1
    79    35    77    1
    80    35    78    1
    81    36    79    1
    82    36    80    1
    83    37    81    1
    84    37    82    1
    85    37    83    1
    86    38    84    1
    87    38    85    1
    88    38    86    1
@<TRIPOS>MOLECULE
01012527H
 86 88 0 0 0
SMALL
GASTEIGER

@<TRIPOS>ATOM
      1 C          -0.8485    2.9145    5.3527 C.3     1  LIG1        0.0531
      2 C          -1.0708    1.9737    4.1743 C.3     1  LIG1       -0.0111
      3 C          -2.1937    3.3733    5.9002 C.3     1  LIG1        0.0375
      4 C          -0.1718    1.9343    6.3099 C.2     1  LIG1        0.0509
      5 N          -2.5397    1.4926    4.3490 N.4     1  LIG1        0.2448
      6 C          -0.9676    2.5899    2.7536 C.3     1  LIG1       -0.0039
      7 C          -2.6410    4.8060    5.6342 C.ar    1  LIG1       -0.0313
      8 C          -3.2041    2.3356    5.4120 C.3     1  LIG1       -0.0234
      9 O          -0.9538    1.2739    7.0501 O.co2   1  LIG1       -0.5493
     10 O           1.0695    1.8252    6.1487 O.co2   1  LIG1       -0.5493
     11 C          -2.6304   -0.0112    4.6820 C.3     1  LIG1        0.0465
     12 C           0.4447    2.8768    2.1451 C.3     1  LIG1       -0.0298
     13 C          -2.1983    5.5724    4.5515 C.ar    1  LIG1       -0.0122
     14 C          -3.5384    5.4060    6.5619 C.ar    1  LIG1       -0.0124
     15 C          -2.2268   -0.9023    3.5020 C.2     1  LIG1        0.2608
     16 C           0.2918    3.1596    0.6116 C.3     1  LIG1       -0.0479
     17 C           1.0832    4.1403    2.7554 C.3     1  LIG1       -0.0596
     18 C           1.4109    1.7024    2.3725 C.3     1  LIG1       -0.0596
     19 C          -2.6659    6.8650    4.4139 C.ar    1  LIG1        0.1702
     20 C          -3.9693    6.7332    6.4227 C.ar    1  LIG1        0.1656
     21 N          -1.9092   -2.2295    3.7578 N.am    1  LIG1       -0.2971
     22 O          -2.1759   -0.4161    2.3670 O.2     1  LIG1       -0.2697
     23 C          -0.0769    1.9574   -0.2695 C.3     1  LIG1       -0.0554
     24 C          -3.5305    7.4322    5.3171 C.ar    1  LIG1        0.2075
     25 O          -2.3252    7.7164    3.4084 O.3     1  LIG1       -0.4525
     26 O          -4.8130    7.3718    7.2841 O.3     1  LIG1       -0.4913
     27 C          -2.4067   -2.9737    4.9227 C.3     1  LIG1        0.0148
     28 C          -1.2632   -3.0066    2.6950 C.3     1  LIG1        0.0148
     29 C          -0.2346    2.3698   -1.7266 C.3     1  LIG1       -0.0653
     30 O          -3.8381    8.7188    4.9915 O.3     1  LIG1       -0.4489
     31 C          -3.0466    8.9014    3.8028 C.3     1  LIG1        0.2334
     32 C          -4.6579    7.0127    8.6537 C.3     1  LIG1        0.0790
     33 C          -3.6717   -3.7643    4.5644 C.3     1  LIG1       -0.0374
     34 C           0.1941   -2.5944    2.4587 C.3     1  LIG1       -0.0374
     35 C          -4.2965   -4.4872    5.7571 C.3     1  LIG1       -0.0545
     36 C           1.0746   -2.7969    3.6938 C.3     1  LIG1       -0.0545
     37 C          -5.0443   -3.5494    6.6918 C.3     1  LIG1       -0.0652
     38 C           2.5249   -2.4408    3.4069 C.3     1  LIG1       -0.0652
     39 H          -0.1627    3.7410    5.1720 H       1  LIG1        0.0424
     40 H          -0.4553    1.0672    4.1861 H       1  LIG1        0.0858
     41 H          -2.1573    3.3216    6.9981 H       1  LIG1        0.0409
     42 H          -3.0219    1.5976    3.4483 H       1  LIG1        0.2042
     43 H          -1.5887    3.4868    2.6813 H       1  LIG1        0.0325
     44 H          -1.4552    1.8826    2.0774 H       1  LIG1        0.0325
     45 H          -4.0982    2.7700    4.9526 H       1  LIG1        0.0821
     46 H          -3.5188    1.6787    6.2306 H       1  LIG1        0.0821
     47 H          -3.6809   -0.2135    4.9151 H       1  LIG1        0.0913
     48 H          -1.9943   -0.2061    5.5432 H       1  LIG1        0.0913
     49 H          -1.4839    5.2087    3.8306 H       1  LIG1        0.0658
     50 H          -3.8838    4.8185    7.4099 H       1  LIG1        0.0658
     51 H           1.2359    3.5707    0.2283 H       1  LIG1        0.0270
     52 H          -0.4597    3.9486    0.4713 H       1  LIG1        0.0270
     53 H           1.3495    4.0038    3.8052 H       1  LIG1        0.0235
     54 H           0.4190    5.0054    2.6692 H       1  LIG1        0.0235
     55 H           2.0145    4.3987    2.2367 H       1  LIG1        0.0235
     56 H           1.6921    1.6104    3.4263 H       1  LIG1        0.0235
     57 H           2.3383    1.8410    1.8047 H       1  LIG1        0.0235
     58 H           0.9669    0.7511    2.0654 H       1  LIG1        0.0235
     59 H          -1.0124    1.4969    0.0600 H       1  LIG1        0.0263
     60 H           0.7034    1.1912   -0.2110 H       1  LIG1        0.0263
     61 H          -2.6222   -2.2840    5.7403 H       1  LIG1        0.0464
     62 H          -1.6111   -3.6447    5.2656 H       1  LIG1        0.0464
     63 H          -1.8363   -2.8687    1.7707 H       1  LIG1        0.0464
     64 H          -1.2999   -4.0728    2.9455 H       1  LIG1        0.0464
     65 H          -1.0379    3.1045   -1.8413 H       1  LIG1        0.0230
     66 H          -0.4816    1.4983   -2.3413 H       1  LIG1        0.0230
     67 H           0.6911    2.8069   -2.1142 H       1  LIG1        0.0230
     68 H          -3.7088    9.1980    2.9815 H       1  LIG1        0.1166
     69 H          -2.3249    9.7074    3.9800 H       1  LIG1        0.1166
     70 H          -5.1368    7.7882    9.2592 H       1  LIG1        0.0660
     71 H          -3.6028    6.9652    8.9466 H       1  LIG1        0.0660
     72 H          -5.1638    6.0650    8.8623 H       1  LIG1        0.0660
     73 H          -3.4201   -4.5159    3.8060 H       1  LIG1        0.0280
     74 H          -4.4123   -3.1008    4.1003 H       1  LIG1        0.0280
     75 H           0.2430   -1.5458    2.1455 H       1  LIG1        0.0280
     76 H           0.5914   -3.1904    1.6281 H       1  LIG1        0.0280
     77 H          -3.5286   -5.0354    6.3145 H       1  LIG1        0.0263
     78 H          -5.0074   -5.2318    5.3788 H       1  LIG1        0.0263
     79 H           1.0184   -3.8403    4.0247 H       1  LIG1        0.0263
     80 H           0.7166   -2.1730    4.5206 H       1  LIG1        0.0263
     81 H          -4.3720   -2.8242    7.1583 H       1  LIG1        0.0230
     82 H          -5.5279   -4.1217    7.4898 H       1  LIG1        0.0230
     83 H          -5.8234   -3.0006    6.1525 H       1  LIG1        0.0230
     84 H           2.9344   -3.0727    2.6124 H       1  LIG1        0.0230
     85 H           3.1350   -2.5855    4.3040 H       1  LIG1        0.0230
     86 H           2.6185   -1.3948    3.0978 H       1  LIG1        0.0230
@<TRIPOS>BOND
     1     1     2    1
     2     1     3    1
     3     1     4    1
     4     2     5    1
     5     2     6    1
     6     3     8    1
     7     3     7    1
     8     4    10   ar
     9     4     9   ar
    10     5     8    1
    11     5    11    1
    12     6    12    1
    13     7    14   ar
    14     7    13   ar
    15    11    15    1
    16    12    18    1
    17    12    17    1
    18    12    16    1
    19    13    19   ar
    20    14    20   ar
    21    15    22    2
    22    15    21   am
    23    16    23    1
    24    19    25    1
    25    19    24   ar
    26    20    24   ar
    27    20    26    1
    28    21    28    1
    29    21    27    1
    30    23    29    1
    31    24    30    1
    32    25    31    1
    33    26    32    1
    34    27    33    1
    35    28    34    1
    36    30    31    1
    37    33    35    1
    38    34    36    1
    39    35    37    1
    40    36    38    1
    41     1    39    1
    42     2    40    1
    43     3    41    1
    44     5    42    1
    45     6    43    1
    46     6    44    1
    47     8    45    1
    48     8    46    1
    49    11    47    1
    50    11    48    1
    51    13    49    1
    52    14    50    1
    53    16    51    1
    54    16    52    1
    55    17    53    1
    56    17    54    1
    57    17    55    1
    58    18    56    1
    59    18    57    1
    60    18    58    1
    61    23    59    1
    62    23    60    1
    63    27    61    1
    64    27    62    1
    65    28    63    1
    66    28    64    1
    67    29    65    1
    68    29    66    1
    69    29    67    1
    70    31    68    1
    71    31    69    1
    72    32    70    1
    73    32    71    1
    74    32    72    1
    75    33    73    1
    76    33    74    1
    77    34    75    1
    78    34    76    1
    79    35    77    1
    80    35    78    1
    81    36    79    1
    82    36    80    1
    83    37    81    1
    84    37    82    1
    85    37    83    1
    86    38    84    1
    87    38    85    1
    88    38    86    1
@<TRIPOS>MOLECULE
01012527H
 86 88 0 0 0
SMALL
GASTEIGER

@<TRIPOS>ATOM
      1 C          -0.8043    2.9693    5.4545 C.3     1  LIG1        0.0531
      2 C          -1.0685    2.1063    4.2298 C.3     1  LIG1       -0.0111
      3 C          -2.1488    3.3904    6.0445 C.3     1  LIG1        0.0375
      4 C          -0.0664    1.9476    6.3193 C.2     1  LIG1        0.0509
      5 N          -2.5001    1.5679    4.4435 N.4     1  LIG1        0.2448
      6 C          -1.0679    2.7992    2.8475 C.3     1  LIG1       -0.0039
      7 C          -2.7067    4.7670    5.6652 C.ar    1  LIG1       -0.0313
      8 C          -3.0764    2.2180    5.6913 C.3     1  LIG1       -0.0234
      9 O           1.1579    1.8338    6.0507 O.co2   1  LIG1       -0.5493
     10 O          -0.7903    1.2600    7.0876 O.co2   1  LIG1       -0.5493
     11 C          -2.4989    0.0351    4.5291 C.3     1  LIG1        0.0465
     12 C           0.3009    3.1232    2.1660 C.3     1  LIG1       -0.0298
     13 C          -1.9448    5.7394    4.9990 C.ar    1  LIG1       -0.0122
     14 C          -3.9958    5.1433    6.1458 C.ar    1  LIG1       -0.0124
     15 C          -3.9034   -0.5845    4.5689 C.2     1  LIG1        0.2608
     16 C           0.0902    3.2736    0.6231 C.3     1  LIG1       -0.0479
     17 C           0.9202    4.4194    2.7138 C.3     1  LIG1       -0.0596
     18 C           1.3240    1.9855    2.3622 C.3     1  LIG1       -0.0596
     19 C          -2.4736    7.0054    4.8290 C.ar    1  LIG1        0.1702
     20 C          -4.5191    6.4327    5.9491 C.ar    1  LIG1        0.1656
     21 N          -4.0089   -1.9755    4.5054 N.am    1  LIG1       -0.2971
     22 O          -4.8942    0.1496    4.6430 O.2     1  LIG1       -0.2697
     23 C          -0.9668    4.2957    0.1890 C.3     1  LIG1       -0.0554
     24 C          -3.7194    7.3451    5.2928 C.ar    1  LIG1        0.2075
     25 O          -1.8332    8.0462    4.2317 O.3     1  LIG1       -0.4525
     26 O          -5.7281    6.8853    6.3900 O.3     1  LIG1       -0.4913
     27 C          -2.9062   -2.8632    4.0998 C.3     1  LIG1        0.0148
     28 C          -5.3445   -2.5705    4.6358 C.3     1  LIG1        0.0148
     29 C          -1.0542    4.3803   -1.3285 C.3     1  LIG1       -0.0653
     30 O          -4.0168    8.6531    5.0402 O.3     1  LIG1       -0.4489
     31 C          -2.7851    9.1068    4.4484 C.3     1  LIG1        0.2334
     32 C          -6.6656    5.9136    6.8267 C.3     1  LIG1        0.0790
     33 C          -1.9778   -3.2721    5.2420 C.3     1  LIG1       -0.0374
     34 C          -5.9109   -2.5550    6.0609 C.3     1  LIG1       -0.0374
     35 C          -0.7926   -4.0860    4.7200 C.3     1  LIG1       -0.0545
     36 C          -5.1167   -3.4273    7.0329 C.3     1  LIG1       -0.0545
     37 C           0.1885   -4.4194    5.8324 C.3     1  LIG1       -0.0652
     38 C          -5.8290   -3.5856    8.3657 C.3     1  LIG1       -0.0652
     39 H          -0.1114    3.7920    5.2912 H       1  LIG1        0.0424
     40 H          -0.4270    1.2212    4.1555 H       1  LIG1        0.0858
     41 H          -2.0617    3.4444    7.1388 H       1  LIG1        0.0409
     42 H          -3.1223    1.8267    3.6708 H       1  LIG1        0.2042
     43 H          -1.6821    3.7056    2.8933 H       1  LIG1        0.0325
     44 H          -1.5960    2.1207    2.1619 H       1  LIG1        0.0325
     45 H          -4.0998    2.5137    5.4439 H       1  LIG1        0.0821
     46 H          -3.1175    1.4703    6.4894 H       1  LIG1        0.0821
     47 H          -1.9384   -0.2487    5.4205 H       1  LIG1        0.0913
     48 H          -1.9870   -0.2982    3.6228 H       1  LIG1        0.0913
     49 H          -0.9362    5.5651    4.6547 H       1  LIG1        0.0658
     50 H          -4.5623    4.4234    6.7302 H       1  LIG1        0.0658
     51 H          -0.1865    2.2953    0.2068 H       1  LIG1        0.0270
     52 H           1.0479    3.5386    0.1547 H       1  LIG1        0.0270
     53 H           1.2571    4.3043    3.7471 H       1  LIG1        0.0235
     54 H           0.2134    5.2528    2.6769 H       1  LIG1        0.0235
     55 H           1.8000    4.7118    2.1287 H       1  LIG1        0.0235
     56 H           1.6299    1.8896    3.4078 H       1  LIG1        0.0235
     57 H           2.2357    2.1709    1.7825 H       1  LIG1        0.0235
     58 H           0.9143    1.0232    2.0367 H       1  LIG1        0.0235
     59 H          -0.7293    5.2883    0.5842 H       1  LIG1        0.0263
     60 H          -1.9514    4.0140    0.5749 H       1  LIG1        0.0263
     61 H          -2.3316   -2.3556    3.3183 H       1  LIG1        0.0464
     62 H          -3.3243   -3.7575    3.6239 H       1  LIG1        0.0464
     63 H          -5.3333   -3.5984    4.2553 H       1  LIG1        0.0464
     64 H          -6.0237   -2.0062    3.9850 H       1  LIG1        0.0464
     65 H          -0.1044    4.7150   -1.7579 H       1  LIG1        0.0230
     66 H          -1.8307    5.0933   -1.6239 H       1  LIG1        0.0230
     67 H          -1.3042    3.4072   -1.7630 H       1  LIG1        0.0230
     68 H          -3.0113    9.5795    3.4855 H       1  LIG1        0.1166
     69 H          -2.3318    9.8557    5.1082 H       1  LIG1        0.1166
     70 H          -7.6065    6.4290    7.0417 H       1  LIG1        0.0660
     71 H          -6.3333    5.4303    7.7509 H       1  LIG1        0.0660
     72 H          -6.8617    5.1739    6.0413 H       1  LIG1        0.0660
     73 H          -2.5274   -3.8764    5.9699 H       1  LIG1        0.0280
     74 H          -1.6110   -2.3914    5.7769 H       1  LIG1        0.0280
     75 H          -6.9442   -2.9201    6.0158 H       1  LIG1        0.0280
     76 H          -5.9544   -1.5306    6.4466 H       1  LIG1        0.0280
     77 H          -0.2672   -3.5265    3.9370 H       1  LIG1        0.0263
     78 H          -1.1550   -5.0161    4.2672 H       1  LIG1        0.0263
     79 H          -4.1375   -2.9731    7.2172 H       1  LIG1        0.0263
     80 H          -4.9490   -4.4199    6.5975 H       1  LIG1        0.0263
     81 H           0.6169   -3.5078    6.2609 H       1  LIG1        0.0230
     82 H           1.0100   -5.0292    5.4431 H       1  LIG1        0.0230
     83 H          -0.3013   -4.9798    6.6353 H       1  LIG1        0.0230
     84 H          -5.9818   -2.6152    8.8467 H       1  LIG1        0.0230
     85 H          -5.2329   -4.2096    9.0403 H       1  LIG1        0.0230
     86 H          -6.8048   -4.0649    8.2359 H       1  LIG1        0.0230
@<TRIPOS>BOND
     1     1     2    1
     2     1     3    1
     3     1     4    1
     4     2     5    1
     5     2     6    1
     6     3     8    1
     7     3     7    1
     8     4    10   ar
     9     4     9   ar
    10     5     8    1
    11     5    11    1
    12     6    12    1
    13     7    14   ar
    14     7    13   ar
    15    11    15    1
    16    12    18    1
    17    12    17    1
    18    12    16    1
    19    13    19   ar
    20    14    20   ar
    21    15    22    2
    22    15    21   am
    23    16    23    1
    24    19    25    1
    25    19    24   ar
    26    20    24   ar
    27    20    26    1
    28    21    28    1
    29    21    27    1
    30    23    29    1
    31    24    30    1
    32    25    31    1
    33    26    32    1
    34    27    33    1
    35    28    34    1
    36    30    31    1
    37    33    35    1
    38    34    36    1
    39    35    37    1
    40    36    38    1
    41     1    39    1
    42     2    40    1
    43     3    41    1
    44     5    42    1
    45     6    43    1
    46     6    44    1
    47     8    45    1
    48     8    46    1
    49    11    47    1
    50    11    48    1
    51    13    49    1
    52    14    50    1
    53    16    51    1
    54    16    52    1
    55    17    53    1
    56    17    54    1
    57    17    55    1
    58    18    56    1
    59    18    57    1
    60    18    58    1
    61    23    59    1
    62    23    60    1
    63    27    61    1
    64    27    62    1
    65    28    63    1
    66    28    64    1
    67    29    65    1
    68    29    66    1
    69    29    67    1
    70    31    68    1
    71    31    69    1
    72    32    70    1
    73    32    71    1
    74    32    72    1
    75    33    73    1
    76    33    74    1
    77    34    75    1
    78    34    76    1
    79    35    77    1
    80    35    78    1
    81    36    79    1
    82    36    80    1
    83    37    81    1
    84    37    82    1
    85    37    83    1
    86    38    84    1
    87    38    85    1
    88    38    86    1
@<TRIPOS>MOLECULE
01012527H
 86 88 0 0 0
SMALL
GASTEIGER

@<TRIPOS>ATOM
      1 C          -0.8877    2.9862    5.4688 C.3     1  LIG1        0.0531
      2 C          -1.0751    2.0968    4.2479 C.3     1  LIG1       -0.0111
      3 C          -2.2622    3.3388    6.0202 C.3     1  LIG1        0.0375
      4 C          -0.1150    2.0184    6.3576 C.2     1  LIG1        0.0509
      5 N          -2.5170    1.5420    4.3942 N.4     1  LIG1        0.2448
      6 C          -1.0012    2.7645    2.8559 C.3     1  LIG1       -0.0039
      7 C          -2.7061    4.7185    5.5469 C.ar    1  LIG1       -0.0313
      8 C          -3.1415    2.1498    5.6429 C.3     1  LIG1       -0.0234
      9 O           1.1258    2.0113    6.1578 O.co2   1  LIG1       -0.5493
     10 O          -0.8236    1.2632    7.0762 O.co2   1  LIG1       -0.5493
     11 C          -2.5083    0.0093    4.4361 C.3     1  LIG1        0.0465
     12 C           0.3964    3.1214    2.2436 C.3     1  LIG1       -0.0298
     13 C          -3.4304    4.9436    4.3691 C.ar    1  LIG1       -0.0122
     14 C          -2.3048    5.8402    6.3270 C.ar    1  LIG1       -0.0124
     15 C          -3.9127   -0.6133    4.4578 C.2     1  LIG1        0.2608
     16 C           0.1379    3.4167    0.7276 C.3     1  LIG1       -0.0479
     17 C           0.9980    4.3604    2.9252 C.3     1  LIG1       -0.0596
     18 C           1.3806    1.9476    2.3862 C.3     1  LIG1       -0.0596
     19 C          -3.6770    6.2480    3.9912 C.ar    1  LIG1        0.1702
     20 C          -2.6086    7.1541    5.9480 C.ar    1  LIG1        0.1656
     21 N          -4.0113   -2.0050    4.4425 N.am    1  LIG1       -0.2971
     22 O          -4.9073    0.1184    4.4843 O.2     1  LIG1       -0.2697
     23 C           1.3453    3.8438   -0.1157 C.3     1  LIG1       -0.0554
     24 C          -3.2768    7.3234    4.7512 C.ar    1  LIG1        0.2075
     25 O          -4.3131    6.6248    2.8480 O.3     1  LIG1       -0.4525
     26 O          -2.2753    8.2825    6.6381 O.3     1  LIG1       -0.4913
     27 C          -2.9087   -2.8962    4.0487 C.3     1  LIG1        0.0148
     28 C          -5.3418   -2.6047    4.6017 C.3     1  LIG1        0.0148
     29 C           0.9654    3.9826   -1.5844 C.3     1  LIG1       -0.0653
     30 O          -3.6247    8.5105    4.1784 O.3     1  LIG1       -0.4489
     31 C          -4.2273    8.0621    2.9520 C.3     1  LIG1        0.2334
     32 C          -1.9273    8.1090    8.0064 C.3     1  LIG1        0.0790
     33 C          -2.0484   -3.3673    5.2197 C.3     1  LIG1       -0.0374
     34 C          -5.9162   -2.5119    6.0213 C.3     1  LIG1       -0.0374
     35 C          -0.8230   -4.1663    4.7682 C.3     1  LIG1       -0.0545
     36 C          -5.1421   -3.3489    7.0390 C.3     1  LIG1       -0.0545
     37 C          -1.1782   -5.5305    4.1951 C.3     1  LIG1       -0.0652
     38 C          -5.8748   -3.4448    8.3682 C.3     1  LIG1       -0.0652
     39 H          -0.2698    3.8687    5.2979 H       1  LIG1        0.0424
     40 H          -0.4229    1.2165    4.2258 H       1  LIG1        0.0858
     41 H          -2.2499    3.3890    7.1180 H       1  LIG1        0.0409
     42 H          -3.1115    1.8162    3.6062 H       1  LIG1        0.2042
     43 H          -1.6237    3.6640    2.8385 H       1  LIG1        0.0325
     44 H          -1.4814    2.0675    2.1526 H       1  LIG1        0.0325
     45 H          -4.1742    2.4232    5.4057 H       1  LIG1        0.0821
     46 H          -3.1564    1.3860    6.4266 H       1  LIG1        0.0821
     47 H          -1.9450   -0.2978    5.3190 H       1  LIG1        0.0913
     48 H          -1.9974   -0.2950    3.5192 H       1  LIG1        0.0913
     49 H          -3.7753    4.1436    3.7271 H       1  LIG1        0.0658
     50 H          -1.7276    5.6551    7.2312 H       1  LIG1        0.0658
     51 H          -0.6294    4.1990    0.6458 H       1  LIG1        0.0270
     52 H          -0.2947    2.5175    0.2670 H       1  LIG1        0.0270
     53 H           1.2873    4.1531    3.9581 H       1  LIG1        0.0235
     54 H           0.2903    5.1969    2.9253 H       1  LIG1        0.0235
     55 H           1.9121    4.6967    2.4258 H       1  LIG1        0.0235
     56 H           1.5903    1.7212    3.4360 H       1  LIG1        0.0235
     57 H           2.3488    2.1706    1.9267 H       1  LIG1        0.0235
     58 H           0.9853    1.0405    1.9169 H       1  LIG1        0.0235
     59 H           2.1545    3.1117   -0.0388 H       1  LIG1        0.0263
     60 H           1.7337    4.8060    0.2322 H       1  LIG1        0.0263
     61 H          -2.2817   -2.3730    3.3203 H       1  LIG1        0.0464
     62 H          -3.3323   -3.7516    3.5116 H       1  LIG1        0.0464
     63 H          -5.3160   -3.6533    4.2850 H       1  LIG1        0.0464
     64 H          -6.0215   -2.0858    3.9145 H       1  LIG1        0.0464
     65 H           0.6167    3.0274   -1.9906 H       1  LIG1        0.0230
     66 H           1.8319    4.3032   -2.1711 H       1  LIG1        0.0230
     67 H           0.1709    4.7237   -1.7172 H       1  LIG1        0.0230
     68 H          -5.2380    8.4792    2.8829 H       1  LIG1        0.1166
     69 H          -3.6339    8.4393    2.1103 H       1  LIG1        0.1166
     70 H          -1.8648    9.1011    8.4639 H       1  LIG1        0.0660
     71 H          -0.9459    7.6342    8.1028 H       1  LIG1        0.0660
     72 H          -2.6945    7.5426    8.5460 H       1  LIG1        0.0660
     73 H          -2.6439   -3.9820    5.9011 H       1  LIG1        0.0280
     74 H          -1.7045   -2.5040    5.7992 H       1  LIG1        0.0280
     75 H          -6.9545   -2.8647    5.9858 H       1  LIG1        0.0280
     76 H          -5.9487   -1.4697    6.3585 H       1  LIG1        0.0280
     77 H          -0.1642   -4.3142    5.6319 H       1  LIG1        0.0263
     78 H          -0.2516   -3.5942    4.0276 H       1  LIG1        0.0263
     79 H          -4.1597   -2.8990    7.2155 H       1  LIG1        0.0263
     80 H          -4.9820   -4.3612    6.6503 H       1  LIG1        0.0263
     81 H          -1.7518   -6.1204    4.9172 H       1  LIG1        0.0230
     82 H          -0.2666   -6.0862    3.9534 H       1  LIG1        0.0230
     83 H          -1.7664   -5.4418    3.2773 H       1  LIG1        0.0230
     84 H          -6.0326   -2.4532    8.8031 H       1  LIG1        0.0230
     85 H          -5.2914   -4.0396    9.0785 H       1  LIG1        0.0230
     86 H          -6.8496   -3.9276    8.2447 H       1  LIG1        0.0230
@<TRIPOS>BOND
     1     1     2    1
     2     1     3    1
     3     1     4    1
     4     2     5    1
     5     2     6    1
     6     3     8    1
     7     3     7    1
     8     4    10   ar
     9     4     9   ar
    10     5     8    1
    11     5    11    1
    12     6    12    1
    13     7    14   ar
    14     7    13   ar
    15    11    15    1
    16    12    18    1
    17    12    17    1
    18    12    16    1
    19    13    19   ar
    20    14    20   ar
    21    15    22    2
    22    15    21   am
    23    16    23    1
    24    19    25    1
    25    19    24   ar
    26    20    24   ar
    27    20    26    1
    28    21    28    1
    29    21    27    1
    30    23    29    1
    31    24    30    1
    32    25    31    1
    33    26    32    1
    34    27    33    1
    35    28    34    1
    36    30    31    1
    37    33    35    1
    38    34    36    1
    39    35    37    1
    40    36    38    1
    41     1    39    1
    42     2    40    1
    43     3    41    1
    44     5    42    1
    45     6    43    1
    46     6    44    1
    47     8    45    1
    48     8    46    1
    49    11    47    1
    50    11    48    1
    51    13    49    1
    52    14    50    1
    53    16    51    1
    54    16    52    1
    55    17    53    1
    56    17    54    1
    57    17    55    1
    58    18    56    1
    59    18    57    1
    60    18    58    1
    61    23    59    1
    62    23    60    1
    63    27    61    1
    64    27    62    1
    65    28    63    1
    66    28    64    1
    67    29    65    1
    68    29    66    1
    69    29    67    1
    70    31    68    1
    71    31    69    1
    72    32    70    1
    73    32    71    1
    74    32    72    1
    75    33    73    1
    76    33    74    1
    77    34    75    1
    78    34    76    1
    79    35    77    1
    80    35    78    1
    81    36    79    1
    82    36    80    1
    83    37    81    1
    84    37    82    1
    85    37    83    1
    86    38    84    1
    87    38    85    1
    88    38    86    1
@<TRIPOS>MOLECULE
01012527H
 86 88 0 0 0
SMALL
GASTEIGER

@<TRIPOS>ATOM
      1 C          -0.7722    2.9781    5.5171 C.3     1  LIG1        0.0531
      2 C          -1.0692    2.1395    4.2826 C.3     1  LIG1       -0.0111
      3 C          -2.1046    3.4091    6.1287 C.3     1  LIG1        0.0375
      4 C          -0.0238    1.9353    6.3506 C.2     1  LIG1        0.0509
      5 N          -2.5005    1.6157    4.5151 N.4     1  LIG1        0.2448
      6 C          -1.0856    2.8526    2.9108 C.3     1  LIG1       -0.0039
      7 C          -2.6625    4.7741    5.7173 C.ar    1  LIG1       -0.0313
      8 C          -3.0355    2.2310    5.7977 C.3     1  LIG1       -0.0234
      9 O           1.1917    1.8113    6.0476 O.co2   1  LIG1       -0.5493
     10 O          -0.7364    1.2484    7.1299 O.co2   1  LIG1       -0.5493
     11 C          -2.5217    0.0885    4.5505 C.3     1  LIG1        0.0465
     12 C           0.2760    3.1445    2.2022 C.3     1  LIG1       -0.0298
     13 C          -1.8907    5.7552    5.0813 C.ar    1  LIG1       -0.0122
     14 C          -3.9794    5.1336    6.1087 C.ar    1  LIG1       -0.0124
     15 C          -3.9353   -0.5034    4.5230 C.2     1  LIG1        0.2608
     16 C           0.0384    3.3097    0.6655 C.3     1  LIG1       -0.0479
     17 C           0.9389    4.4186    2.7506 C.3     1  LIG1       -0.0596
     18 C           1.2701    1.9765    2.3680 C.3     1  LIG1       -0.0596
     19 C          -2.4534    6.9926    4.8248 C.ar    1  LIG1        0.1702
     20 C          -4.5380    6.3976    5.8405 C.ar    1  LIG1        0.1656
     21 N          -4.0484   -1.8908    4.4678 N.am    1  LIG1       -0.2971
     22 O          -4.9162    0.2459    4.5321 O.2     1  LIG1       -0.2697
     23 C          -0.9713    4.3857    0.2527 C.3     1  LIG1       -0.0554
     24 C          -3.7416    7.3155    5.1872 C.ar    1  LIG1        0.2075
     25 O          -1.8010    8.0199    4.2128 O.3     1  LIG1       -0.4525
     26 O          -5.8182    6.5533    6.2859 O.3     1  LIG1       -0.4913
     27 C          -2.9145   -2.8012    4.2529 C.3     1  LIG1        0.0148
     28 C          -5.3847   -2.4876    4.5278 C.3     1  LIG1        0.0148
     29 C          -1.0981    4.4589   -1.2631 C.3     1  LIG1       -0.0653
     30 O          -4.0479    8.5959    4.8351 O.3     1  LIG1       -0.4489
     31 C          -2.8031    9.0491    4.2717 C.3     1  LIG1        0.2334
     32 C          -6.4233    7.8255    6.0934 C.3     1  LIG1        0.0790
     33 C          -2.6401   -2.9993    2.7589 C.3     1  LIG1       -0.0374
     34 C          -5.9265   -2.5843    5.9586 C.3     1  LIG1       -0.0374
     35 C          -1.4855   -3.9591    2.4710 C.3     1  LIG1       -0.0545
     36 C          -5.1120   -3.5264    6.8480 C.3     1  LIG1       -0.0545
     37 C          -0.1418   -3.4644    2.9849 C.3     1  LIG1       -0.0652
     38 C          -5.7231   -3.6548    8.2346 C.3     1  LIG1       -0.0652
     39 H          -0.0719    3.7949    5.3501 H       1  LIG1        0.0424
     40 H          -0.4407    1.2478    4.1854 H       1  LIG1        0.0858
     41 H          -2.0036    3.4795    7.2210 H       1  LIG1        0.0409
     42 H          -3.1409    1.9114    3.7697 H       1  LIG1        0.2042
     43 H          -1.6714    3.7762    2.9825 H       1  LIG1        0.0325
     44 H          -1.6518    2.2014    2.2278 H       1  LIG1        0.0325
     45 H          -4.0741    2.5095    5.5996 H       1  LIG1        0.0821
     46 H          -3.0354    1.4670    6.5810 H       1  LIG1        0.0821
     47 H          -1.9895   -0.2396    5.4464 H       1  LIG1        0.0913
     48 H          -1.9961   -0.2338    3.6474 H       1  LIG1        0.0913
     49 H          -0.8544    5.6056    4.8069 H       1  LIG1        0.0658
     50 H          -4.5929    4.4317    6.6732 H       1  LIG1        0.0658
     51 H          -0.2965    2.3470    0.2549 H       1  LIG1        0.0270
     52 H           0.9981    3.5260    0.1763 H       1  LIG1        0.0270
     53 H           1.2934    4.2830    3.7757 H       1  LIG1        0.0235
     54 H           0.2517    5.2696    2.7399 H       1  LIG1        0.0235
     55 H           1.8129    4.6956    2.1495 H       1  LIG1        0.0235
     56 H           1.6051    1.8708    3.4035 H       1  LIG1        0.0235
     57 H           2.1693    2.1343    1.7613 H       1  LIG1        0.0235
     58 H           0.8218    1.0272    2.0548 H       1  LIG1        0.0235
     59 H          -0.6641    5.3670    0.6275 H       1  LIG1        0.0263
     60 H          -1.9586    4.1665    0.6717 H       1  LIG1        0.0263
     61 H          -3.1350   -3.7617    4.7312 H       1  LIG1        0.0464
     62 H          -2.0333   -2.3929    4.7534 H       1  LIG1        0.0464
     63 H          -5.3637   -3.4761    4.0549 H       1  LIG1        0.0464
     64 H          -6.0671   -1.8670    3.9351 H       1  LIG1        0.0464
     65 H          -0.1412    4.7246   -1.7245 H       1  LIG1        0.0230
     66 H          -1.8344    5.2176   -1.5469 H       1  LIG1        0.0230
     67 H          -1.4238    3.4988   -1.6773 H       1  LIG1        0.0230
     68 H          -2.9906    9.4171    3.2570 H       1  LIG1        0.1166
     69 H          -2.4223    9.8777    4.8803 H       1  LIG1        0.1166
     70 H          -7.4302    7.7818    6.5208 H       1  LIG1        0.0660
     71 H          -6.5305    8.0556    5.0285 H       1  LIG1        0.0660
     72 H          -5.8767    8.6109    6.6255 H       1  LIG1        0.0660
     73 H          -2.4386   -2.0342    2.2794 H       1  LIG1        0.0280
     74 H          -3.5442   -3.3912    2.2762 H       1  LIG1        0.0280
     75 H          -6.9621   -2.9424    5.9106 H       1  LIG1        0.0280
     76 H          -5.9549   -1.5880    6.4157 H       1  LIG1        0.0280
     77 H          -1.4132   -4.0964    1.3856 H       1  LIG1        0.0263
     78 H          -1.7014   -4.9434    2.9016 H       1  LIG1        0.0263
     79 H          -4.0866   -3.1550    6.9529 H       1  LIG1        0.0263
     80 H          -5.0558   -4.5191    6.3866 H       1  LIG1        0.0263
     81 H           0.0712   -2.4527    2.6246 H       1  LIG1        0.0230
     82 H           0.6594   -4.1244    2.6367 H       1  LIG1        0.0230
     83 H          -0.1100   -3.4568    4.0786 H       1  LIG1        0.0230
     84 H          -5.7652   -2.6826    8.7356 H       1  LIG1        0.0230
     85 H          -5.1210   -4.3289    8.8519 H       1  LIG1        0.0230
     86 H          -6.7385   -4.0595    8.1805 H       1  LIG1        0.0230
@<TRIPOS>BOND
     1     1     2    1
     2     1     3    1
     3     1     4    1
     4     2     5    1
     5     2     6    1
     6     3     8    1
     7     3     7    1
     8     4    10   ar
     9     4     9   ar
    10     5     8    1
    11     5    11    1
    12     6    12    1
    13     7    14   ar
    14     7    13   ar
    15    11    15    1
    16    12    18    1
    17    12    17    1
    18    12    16    1
    19    13    19   ar
    20    14    20   ar
    21    15    22    2
    22    15    21   am
    23    16    23    1
    24    19    25    1
    25    19    24   ar
    26    20    24   ar
    27    20    26    1
    28    21    28    1
    29    21    27    1
    30    23    29    1
    31    24    30    1
    32    25    31    1
    33    26    32    1
    34    27    33    1
    35    28    34    1
    36    30    31    1
    37    33    35    1
    38    34    36    1
    39    35    37    1
    40    36    38    1
    41     1    39    1
    42     2    40    1
    43     3    41    1
    44     5    42    1
    45     6    43    1
    46     6    44    1
    47     8    45    1
    48     8    46    1
    49    11    47    1
    50    11    48    1
    51    13    49    1
    52    14    50    1
    53    16    51    1
    54    16    52    1
    55    17    53    1
    56    17    54    1
    57    17    55    1
    58    18    56    1
    59    18    57    1
    60    18    58    1
    61    23    59    1
    62    23    60    1
    63    27    61    1
    64    27    62    1
    65    28    63    1
    66    28    64    1
    67    29    65    1
    68    29    66    1
    69    29    67    1
    70    31    68    1
    71    31    69    1
    72    32    70    1
    73    32    71    1
    74    32    72    1
    75    33    73    1
    76    33    74    1
    77    34    75    1
    78    34    76    1
    79    35    77    1
    80    35    78    1
    81    36    79    1
    82    36    80    1
    83    37    81    1
    84    37    82    1
    85    37    83    1
    86    38    84    1
    87    38    85    1
    88    38    86    1
@<TRIPOS>MOLECULE
01012527H
 86 88 0 0 0
SMALL
GASTEIGER

@<TRIPOS>ATOM
      1 C          -0.7518    3.1310    5.3885 C.3     1  LIG1        0.0531
      2 C          -1.0002    2.0722    4.3179 C.3     1  LIG1       -0.0111
      3 C          -2.0844    3.5188    6.0218 C.3     1  LIG1        0.0375
      4 C           0.1253    2.2939    6.3165 C.2     1  LIG1        0.0509
      5 N          -2.4391    1.5728    4.6040 N.4     1  LIG1        0.2448
      6 C          -0.9867    2.5214    2.8370 C.3     1  LIG1       -0.0039
      7 C          -2.7967    4.7572    5.4745 C.ar    1  LIG1       -0.0313
      8 C          -2.9333    2.2547    5.8737 C.3     1  LIG1       -0.0234
      9 O          -0.4910    1.5815    7.1497 O.co2   1  LIG1       -0.5493
     10 O           1.3521    2.3201    6.0317 O.co2   1  LIG1       -0.5493
     11 C          -2.4956    0.0450    4.7005 C.3     1  LIG1        0.0465
     12 C           0.3751    2.8419    2.1436 C.3     1  LIG1       -0.0298
     13 C          -3.9148    5.2558    6.1655 C.ar    1  LIG1       -0.0122
     14 C          -2.3680    5.4667    4.3338 C.ar    1  LIG1       -0.0124
     15 C          -3.9281   -0.5045    4.7997 C.2     1  LIG1        0.2608
     16 C           0.1383    3.0349    0.6089 C.3     1  LIG1       -0.0479
     17 C           1.0667    4.0978    2.6992 C.3     1  LIG1       -0.0596
     18 C           1.3526    1.6591    2.3072 C.3     1  LIG1       -0.0596
     19 C          -4.5432    6.3930    5.6887 C.ar    1  LIG1        0.1702
     20 C          -3.0274    6.6087    3.8480 C.ar    1  LIG1        0.1656
     21 N          -4.1483   -1.8559    4.5081 N.am    1  LIG1       -0.2971
     22 O          -4.8518    0.2549    5.1125 O.2     1  LIG1       -0.2697
     23 C          -0.8499    4.1428    0.2193 C.3     1  LIG1       -0.0554
     24 C          -4.1225    7.0558    4.5560 C.ar    1  LIG1        0.2075
     25 O          -5.6259    6.9798    6.2702 O.3     1  LIG1       -0.4525
     26 O          -2.4798    7.1254    2.7101 O.3     1  LIG1       -0.4913
     27 C          -3.0727   -2.7281    4.0038 C.3     1  LIG1        0.0148
     28 C          -5.5289   -2.3563    4.6111 C.3     1  LIG1        0.0148
     29 C          -0.9359    4.2999   -1.2924 C.3     1  LIG1       -0.0653
     30 O          -4.9085    8.1350    4.2886 O.3     1  LIG1       -0.4489
     31 C          -5.8184    8.1124    5.4038 C.3     1  LIG1        0.2334
     32 C          -2.9489    8.3973    2.2838 C.3     1  LIG1        0.0790
     33 C          -3.4000   -4.2047    3.7575 C.3     1  LIG1       -0.0374
     34 C          -6.3137   -2.3026    3.2944 C.3     1  LIG1       -0.0374
     35 C          -2.1781   -4.9645    3.2351 C.3     1  LIG1       -0.0545
     36 C          -6.7627   -0.9093    2.8447 C.3     1  LIG1       -0.0545
     37 C          -2.5352   -6.3888    2.8379 C.3     1  LIG1       -0.0652
     38 C          -7.8089   -0.2822    3.7554 C.3     1  LIG1       -0.0652
     39 H          -0.1677    3.9946    5.0725 H       1  LIG1        0.0424
     40 H          -0.3589    1.1860    4.3962 H       1  LIG1        0.0858
     41 H          -1.9348    3.7275    7.0902 H       1  LIG1        0.0409
     42 H          -3.0827    1.8710    3.8636 H       1  LIG1        0.2042
     43 H          -1.6727    3.3618    2.7126 H       1  LIG1        0.0325
     44 H          -1.4415    1.7049    2.2552 H       1  LIG1        0.0325
     45 H          -3.9996    2.4607    5.7405 H       1  LIG1        0.0821
     46 H          -2.8130    1.5607    6.7106 H       1  LIG1        0.0821
     47 H          -1.9147   -0.2635    5.5743 H       1  LIG1        0.0913
     48 H          -2.0274   -0.3150    3.7813 H       1  LIG1        0.0913
     49 H          -4.2801    4.7845    7.0738 H       1  LIG1        0.0658
     50 H          -1.4773    5.1674    3.7978 H       1  LIG1        0.0658
     51 H          -0.2180    2.0881    0.1807 H       1  LIG1        0.0270
     52 H           1.1019    3.2408    0.1229 H       1  LIG1        0.0270
     53 H           1.4607    3.9359    3.7056 H       1  LIG1        0.0235
     54 H           0.3957    4.9591    2.7280 H       1  LIG1        0.0235
     55 H           1.9241    4.3801    2.0764 H       1  LIG1        0.0235
     56 H           1.6456    1.5154    3.3517 H       1  LIG1        0.0235
     57 H           2.2741    1.8289    1.7378 H       1  LIG1        0.0235
     58 H           0.9079    0.7243    1.9493 H       1  LIG1        0.0235
     59 H          -0.5497    5.1015    0.6538 H       1  LIG1        0.0263
     60 H          -1.8517    3.9106    0.5947 H       1  LIG1        0.0263
     61 H          -2.2428   -2.6578    4.7174 H       1  LIG1        0.0464
     62 H          -2.7257   -2.2848    3.0625 H       1  LIG1        0.0464
     63 H          -6.0579   -1.7956    5.3882 H       1  LIG1        0.0464
     64 H          -5.4958   -3.3852    4.9829 H       1  LIG1        0.0464
     65 H           0.0322    4.5906   -1.7121 H       1  LIG1        0.0230
     66 H          -1.6645    5.0748   -1.5510 H       1  LIG1        0.0230
     67 H          -1.2516    3.3653   -1.7670 H       1  LIG1        0.0230
     68 H          -5.6815    9.0312    5.9863 H       1  LIG1        0.1166
     69 H          -6.8440    8.0911    5.0189 H       1  LIG1        0.1166
     70 H          -2.3390    8.7029    1.4276 H       1  LIG1        0.0660
     71 H          -2.8188    9.1523    3.0658 H       1  LIG1        0.0660
     72 H          -3.9868    8.3415    1.9418 H       1  LIG1        0.0660
     73 H          -4.2097   -4.2929    3.0258 H       1  LIG1        0.0280
     74 H          -3.7440   -4.6775    4.6844 H       1  LIG1        0.0280
     75 H          -7.2047   -2.9339    3.4015 H       1  LIG1        0.0280
     76 H          -5.7169   -2.7409    2.4874 H       1  LIG1        0.0280
     77 H          -1.4004   -4.9875    4.0071 H       1  LIG1        0.0263
     78 H          -1.7570   -4.4484    2.3645 H       1  LIG1        0.0263
     79 H          -7.1984   -0.9982    1.8420 H       1  LIG1        0.0263
     80 H          -5.9020   -0.2406    2.7450 H       1  LIG1        0.0263
     81 H          -2.9605   -6.9398    3.6826 H       1  LIG1        0.0230
     82 H          -1.6430   -6.9228    2.4963 H       1  LIG1        0.0230
     83 H          -3.2650   -6.3947    2.0215 H       1  LIG1        0.0230
     84 H          -8.6963   -0.9188    3.8275 H       1  LIG1        0.0230
     85 H          -8.1211    0.6876    3.3547 H       1  LIG1        0.0230
     86 H          -7.4286   -0.1137    4.7659 H       1  LIG1        0.0230
@<TRIPOS>BOND
     1     1     2    1
     2     1     3    1
     3     1     4    1
     4     2     5    1
     5     2     6    1
     6     3     8    1
     7     3     7    1
     8     4    10   ar
     9     4     9   ar
    10     5     8    1
    11     5    11    1
    12     6    12    1
    13     7    14   ar
    14     7    13   ar
    15    11    15    1
    16    12    18    1
    17    12    17    1
    18    12    16    1
    19    13    19   ar
    20    14    20   ar
    21    15    22    2
    22    15    21   am
    23    16    23    1
    24    19    25    1
    25    19    24   ar
    26    20    24   ar
    27    20    26    1
    28    21    28    1
    29    21    27    1
    30    23    29    1
    31    24    30    1
    32    25    31    1
    33    26    32    1
    34    27    33    1
    35    28    34    1
    36    30    31    1
    37    33    35    1
    38    34    36    1
    39    35    37    1
    40    36    38    1
    41     1    39    1
    42     2    40    1
    43     3    41    1
    44     5    42    1
    45     6    43    1
    46     6    44    1
    47     8    45    1
    48     8    46    1
    49    11    47    1
    50    11    48    1
    51    13    49    1
    52    14    50    1
    53    16    51    1
    54    16    52    1
    55    17    53    1
    56    17    54    1
    57    17    55    1
    58    18    56    1
    59    18    57    1
    60    18    58    1
    61    23    59    1
    62    23    60    1
    63    27    61    1
    64    27    62    1
    65    28    63    1
    66    28    64    1
    67    29    65    1
    68    29    66    1
    69    29    67    1
    70    31    68    1
    71    31    69    1
    72    32    70    1
    73    32    71    1
    74    32    72    1
    75    33    73    1
    76    33    74    1
    77    34    75    1
    78    34    76    1
    79    35    77    1
    80    35    78    1
    81    36    79    1
    82    36    80    1
    83    37    81    1
    84    37    82    1
    85    37    83    1
    86    38    84    1
    87    38    85    1
    88    38    86    1
@<TRIPOS>MOLECULE
01012527H
 86 88 0 0 0
SMALL
GASTEIGER

@<TRIPOS>ATOM
      1 C          -0.9600    3.1432    5.4632 C.3     1  LIG1        0.0531
      2 C          -1.1119    2.1479    4.3207 C.3     1  LIG1       -0.0111
      3 C          -2.3164    3.3300    6.1287 C.3     1  LIG1        0.0375
      4 C           0.0039    2.3444    6.3337 C.2     1  LIG1        0.0509
      5 N          -2.5076    1.5180    4.5338 N.4     1  LIG1        0.2448
      6 C          -1.1050    2.7318    2.8890 C.3     1  LIG1       -0.0039
      7 C          -3.0065    4.6143    5.6746 C.ar    1  LIG1       -0.0313
      8 C          -3.0580    2.0256    5.8564 C.3     1  LIG1       -0.0234
      9 O          -0.5290    1.4387    7.0324 O.co2   1  LIG1       -0.5493
     10 O           1.2172    2.6059    6.1405 O.co2   1  LIG1       -0.5493
     11 C          -2.4587   -0.0070    4.4769 C.3     1  LIG1        0.0465
     12 C           0.2757    3.0630    2.2348 C.3     1  LIG1       -0.0298
     13 C          -2.7320    5.7888    6.4023 C.ar    1  LIG1       -0.0122
     14 C          -3.8965    4.6890    4.5746 C.ar    1  LIG1       -0.0124
     15 C          -3.8652   -0.6239    4.4129 C.2     1  LIG1        0.2608
     16 C           0.0755    3.3191    0.7034 C.3     1  LIG1       -0.0479
     17 C           0.8610    4.3602    2.8297 C.3     1  LIG1       -0.0596
     18 C           1.2996    1.9326    2.4452 C.3     1  LIG1       -0.0596
     19 C          -3.3556    6.9610    6.0314 C.ar    1  LIG1        0.1702
     20 C          -4.5145    5.8962    4.2108 C.ar    1  LIG1        0.1656
     21 N          -3.9796   -2.0130    4.4274 N.am    1  LIG1       -0.2971
     22 O          -4.8445    0.1270    4.3399 O.2     1  LIG1       -0.2697
     23 C          -0.2716    2.0893   -0.1479 C.3     1  LIG1       -0.0554
     24 C          -4.2194    7.0171    4.9657 C.ar    1  LIG1        0.2075
     25 O          -3.2112    8.1616    6.6542 O.3     1  LIG1       -0.4525
     26 O          -5.3787    6.0719    3.1692 O.3     1  LIG1       -0.4913
     27 C          -2.8653   -2.9066    4.0784 C.3     1  LIG1        0.0148
     28 C          -5.3311   -2.5947    4.4520 C.3     1  LIG1        0.0148
     29 C          -0.4308    2.4598   -1.6157 C.3     1  LIG1       -0.0653
     30 O          -4.7248    8.2702    4.7845 O.3     1  LIG1       -0.4489
     31 C          -4.1059    8.9798    5.8737 C.3     1  LIG1        0.2334
     32 C          -5.8907    4.9056    2.5423 C.3     1  LIG1        0.0790
     33 C          -2.0596   -3.3742    5.2911 C.3     1  LIG1       -0.0374
     34 C          -5.4724   -3.7821    5.4086 C.3     1  LIG1       -0.0374
     35 C          -0.8642   -4.2491    4.9006 C.3     1  LIG1       -0.0545
     36 C          -6.9132   -4.2796    5.5501 C.3     1  LIG1       -0.0545
     37 C          -1.2675   -5.5988    4.3261 C.3     1  LIG1       -0.0652
     38 C          -7.4938   -4.8267    4.2553 C.3     1  LIG1       -0.0652
     39 H          -0.4972    4.0914    5.1821 H       1  LIG1        0.0424
     40 H          -0.4068    1.3093    4.3502 H       1  LIG1        0.0858
     41 H          -2.2135    3.4157    7.2198 H       1  LIG1        0.0409
     42 H          -3.1665    1.8149    3.8079 H       1  LIG1        0.2042
     43 H          -1.7429    3.6233    2.8492 H       1  LIG1        0.0325
     44 H          -1.6004    1.9921    2.2487 H       1  LIG1        0.0325
     45 H          -4.1406    2.1451    5.7553 H       1  LIG1        0.0821
     46 H          -2.8670    1.2689    6.6225 H       1  LIG1        0.0821
     47 H          -1.9111   -0.3556    5.3548 H       1  LIG1        0.0913
     48 H          -1.9246   -0.2530    3.5549 H       1  LIG1        0.0913
     49 H          -2.0504    5.7864    7.2493 H       1  LIG1        0.0658
     50 H          -4.1067    3.7988    3.9965 H       1  LIG1        0.0658
     51 H           0.9967    3.7555    0.2933 H       1  LIG1        0.0270
     52 H          -0.7058    4.0793    0.5691 H       1  LIG1        0.0270
     53 H           1.1899    4.2248    3.8624 H       1  LIG1        0.0235
     54 H           0.1288    5.1745    2.8047 H       1  LIG1        0.0235
     55 H           1.7418    4.6905    2.2670 H       1  LIG1        0.0235
     56 H           1.6329    1.8759    3.4859 H       1  LIG1        0.0235
     57 H           2.1946    2.0946    1.8339 H       1  LIG1        0.0235
     58 H           0.8816    0.9558    2.1811 H       1  LIG1        0.0235
     59 H          -1.2002    1.6244    0.1937 H       1  LIG1        0.0263
     60 H           0.5193    1.3363   -0.0711 H       1  LIG1        0.0263
     61 H          -2.2047   -2.3881    3.3769 H       1  LIG1        0.0464
     62 H          -3.2768   -3.7587    3.5276 H       1  LIG1        0.0464
     63 H          -5.5651   -2.8910    3.4229 H       1  LIG1        0.0464
     64 H          -6.0593   -1.8271    4.7385 H       1  LIG1        0.0464
     65 H          -1.2403    3.1840   -1.7531 H       1  LIG1        0.0230
     66 H          -0.6675    1.5689   -2.2071 H       1  LIG1        0.0230
     67 H           0.4926    2.8940   -2.0140 H       1  LIG1        0.0230
     68 H          -3.5423    9.8280    5.4679 H       1  LIG1        0.1166
     69 H          -4.8925    9.3654    6.5333 H       1  LIG1        0.1166
     70 H          -6.6464    5.2200    1.8157 H       1  LIG1        0.0660
     71 H          -6.3788    4.2465    3.2675 H       1  LIG1        0.0660
     72 H          -5.1033    4.3767    1.9963 H       1  LIG1        0.0660
     73 H          -2.6997   -3.9220    5.9915 H       1  LIG1        0.0280
     74 H          -1.6832   -2.5066    5.8439 H       1  LIG1        0.0280
     75 H          -5.1104   -3.4873    6.4015 H       1  LIG1        0.0280
     76 H          -4.8414   -4.6152    5.0786 H       1  LIG1        0.0280
     77 H          -0.2507   -4.4199    5.7935 H       1  LIG1        0.0263
     78 H          -0.2323   -3.7176    4.1788 H       1  LIG1        0.0263
     79 H          -7.5525   -3.4717    5.9248 H       1  LIG1        0.0263
     80 H          -6.9325   -5.0748    6.3055 H       1  LIG1        0.0263
     81 H          -1.9127   -6.1436    5.0220 H       1  LIG1        0.0230
     82 H          -0.3781   -6.2083    4.1405 H       1  LIG1        0.0230
     83 H          -1.7974   -5.4906    3.3759 H       1  LIG1        0.0230
     84 H          -7.6174   -4.0375    3.5082 H       1  LIG1        0.0230
     85 H          -8.4797   -5.2641    4.4411 H       1  LIG1        0.0230
     86 H          -6.8512   -5.6058    3.8340 H       1  LIG1        0.0230
@<TRIPOS>BOND
     1     1     2    1
     2     1     3    1
     3     1     4    1
     4     2     5    1
     5     2     6    1
     6     3     8    1
     7     3     7    1
     8     4    10   ar
     9     4     9   ar
    10     5     8    1
    11     5    11    1
    12     6    12    1
    13     7    14   ar
    14     7    13   ar
    15    11    15    1
    16    12    18    1
    17    12    17    1
    18    12    16    1
    19    13    19   ar
    20    14    20   ar
    21    15    22    2
    22    15    21   am
    23    16    23    1
    24    19    25    1
    25    19    24   ar
    26    20    24   ar
    27    20    26    1
    28    21    28    1
    29    21    27    1
    30    23    29    1
    31    24    30    1
    32    25    31    1
    33    26    32    1
    34    27    33    1
    35    28    34    1
    36    30    31    1
    37    33    35    1
    38    34    36    1
    39    35    37    1
    40    36    38    1
    41     1    39    1
    42     2    40    1
    43     3    41    1
    44     5    42    1
    45     6    43    1
    46     6    44    1
    47     8    45    1
    48     8    46    1
    49    11    47    1
    50    11    48    1
    51    13    49    1
    52    14    50    1
    53    16    51    1
    54    16    52    1
    55    17    53    1
    56    17    54    1
    57    17    55    1
    58    18    56    1
    59    18    57    1
    60    18    58    1
    61    23    59    1
    62    23    60    1
    63    27    61    1
    64    27    62    1
    65    28    63    1
    66    28    64    1
    67    29    65    1
    68    29    66    1
    69    29    67    1
    70    31    68    1
    71    31    69    1
    72    32    70    1
    73    32    71    1
    74    32    72    1
    75    33    73    1
    76    33    74    1
    77    34    75    1
    78    34    76    1
    79    35    77    1
    80    35    78    1
    81    36    79    1
    82    36    80    1
    83    37    81    1
    84    37    82    1
    85    37    83    1
    86    38    84    1
    87    38    85    1
    88    38    86    1
@<TRIPOS>MOLECULE
01012527H
 86 88 0 0 0
SMALL
GASTEIGER

@<TRIPOS>ATOM
      1 C          -0.9323    2.8884    5.4886 C.3     1  LIG1        0.0531
      2 C          -1.1206    1.9680    4.2903 C.3     1  LIG1       -0.0111
      3 C          -2.3162    3.3529    5.9304 C.3     1  LIG1        0.0375
      4 C          -0.2535    1.9403    6.4682 C.2     1  LIG1        0.0509
      5 N          -2.5655    1.4058    4.4802 N.4     1  LIG1        0.2448
      6 C          -1.0809    2.6582    2.9015 C.3     1  LIG1       -0.0039
      7 C          -2.6907    4.7067    5.3363 C.ar    1  LIG1       -0.0313
      8 C          -3.2193    2.1607    5.6182 C.3     1  LIG1       -0.0234
      9 O          -1.0285    1.3452    7.2668 O.co2   1  LIG1       -0.5493
     10 O           0.9790    1.7906    6.2800 O.co2   1  LIG1       -0.5493
     11 C          -2.5685   -0.1063    4.7554 C.3     1  LIG1        0.0465
     12 C           0.3087    3.0034    2.2742 C.3     1  LIG1       -0.0298
     13 C          -3.6755    4.8891    4.3562 C.ar    1  LIG1       -0.0122
     14 C          -2.0070    5.8515    5.8388 C.ar    1  LIG1       -0.0124
     15 C          -2.1913   -0.9340    3.5211 C.2     1  LIG1        0.2608
     16 C           0.1287    3.2670    0.7405 C.3     1  LIG1       -0.0479
     17 C           0.8689    4.3067    2.8828 C.3     1  LIG1       -0.0596
     18 C           1.3410    1.8855    2.4968 C.3     1  LIG1       -0.0596
     19 C          -3.9380    6.1742    3.9236 C.ar    1  LIG1        0.1702
     20 C          -2.2893    7.1459    5.3839 C.ar    1  LIG1        0.1656
     21 N          -1.9122   -2.2838    3.7022 N.am    1  LIG1       -0.2971
     22 O          -2.1377   -0.3881    2.4157 O.2     1  LIG1       -0.2697
     23 C          -0.1788    2.0366   -0.1267 C.3     1  LIG1       -0.0554
     24 C          -3.2700    7.2695    4.4184 C.ar    1  LIG1        0.2075
     25 O          -4.8661    6.5057    2.9846 O.3     1  LIG1       -0.4525
     26 O          -1.6921    8.2972    5.8057 O.3     1  LIG1       -0.4913
     27 C          -2.3633   -3.0646    4.8624 C.3     1  LIG1        0.0148
     28 C          -1.3372   -3.0282    2.5770 C.3     1  LIG1        0.0148
     29 C          -0.3514    2.4202   -1.5900 C.3     1  LIG1       -0.0653
     30 O          -3.7017    8.4296    3.8468 O.3     1  LIG1       -0.4489
     31 C          -4.7150    7.9407    2.9510 C.3     1  LIG1        0.2334
     32 C          -0.6981    8.1796    6.8155 C.3     1  LIG1        0.0790
     33 C          -3.6731   -3.7988    4.5464 C.3     1  LIG1       -0.0374
     34 C           0.1428   -2.6888    2.3796 C.3     1  LIG1       -0.0374
     35 C          -4.2845   -4.5042    5.7563 C.3     1  LIG1       -0.0545
     36 C           0.8390   -3.5920    1.3604 C.3     1  LIG1       -0.0545
     37 C          -4.9935   -3.5454    6.7003 C.3     1  LIG1       -0.0652
     38 C           0.2522   -3.4933   -0.0389 C.3     1  LIG1       -0.0652
     39 H          -0.2501    3.7194    5.3089 H       1  LIG1        0.0424
     40 H          -0.4587    1.0963    4.2687 H       1  LIG1        0.0858
     41 H          -2.3521    3.5052    7.0187 H       1  LIG1        0.0409
     42 H          -3.0791    1.5365    3.6013 H       1  LIG1        0.2042
     43 H          -1.6945    3.5648    2.9129 H       1  LIG1        0.0325
     44 H          -1.5934    1.9932    2.2017 H       1  LIG1        0.0325
     45 H          -4.2388    2.4078    5.3119 H       1  LIG1        0.0821
     46 H          -3.2970    1.4846    6.4765 H       1  LIG1        0.0821
     47 H          -3.5935   -0.3655    5.0401 H       1  LIG1        0.0913
     48 H          -1.8721   -0.2990    5.5731 H       1  LIG1        0.0913
     49 H          -4.2362    4.0752    3.9152 H       1  LIG1        0.0658
     50 H          -1.2475    5.6940    6.6027 H       1  LIG1        0.0658
     51 H           1.0464    3.7251    0.3468 H       1  LIG1        0.0270
     52 H          -0.6662    4.0120    0.5994 H       1  LIG1        0.0270
     53 H           1.2068    4.1676    3.9123 H       1  LIG1        0.0235
     54 H           0.1210    5.1073    2.8691 H       1  LIG1        0.0235
     55 H           1.7410    4.6620    2.3209 H       1  LIG1        0.0235
     56 H           1.6446    1.8206    3.5465 H       1  LIG1        0.0235
     57 H           2.2501    2.0687    1.9126 H       1  LIG1        0.0235
     58 H           0.9449    0.9068    2.2072 H       1  LIG1        0.0235
     59 H          -1.0913    1.5353    0.2078 H       1  LIG1        0.0263
     60 H           0.6369    1.3092   -0.0577 H       1  LIG1        0.0263
     61 H          -2.5036   -2.4075    5.7224 H       1  LIG1        0.0464
     62 H          -1.5714   -3.7750    5.1260 H       1  LIG1        0.0464
     63 H          -1.9128   -2.7875    1.6765 H       1  LIG1        0.0464
     64 H          -1.4453   -4.1025    2.7622 H       1  LIG1        0.0464
     65 H          -1.1844    3.1185   -1.7172 H       1  LIG1        0.0230
     66 H          -0.5599    1.5296   -2.1916 H       1  LIG1        0.0230
     67 H           0.5563    2.8893   -1.9828 H       1  LIG1        0.0230
     68 H          -5.6736    8.3994    3.2200 H       1  LIG1        0.1166
     69 H          -4.4567    8.2412    1.9293 H       1  LIG1        0.1166
     70 H          -0.3300    9.1851    7.0411 H       1  LIG1        0.0660
     71 H           0.1518    7.5842    6.4660 H       1  LIG1        0.0660
     72 H          -1.1196    7.7654    7.7375 H       1  LIG1        0.0660
     73 H          -3.4790   -4.5536    3.7744 H       1  LIG1        0.0280
     74 H          -4.4022   -3.1025    4.1135 H       1  LIG1        0.0280
     75 H           0.6660   -2.7835    3.3397 H       1  LIG1        0.0280
     76 H           0.2513   -1.6414    2.0737 H       1  LIG1        0.0280
     77 H          -3.5159   -5.0648    6.3001 H       1  LIG1        0.0263
     78 H          -5.0190   -5.2359    5.3982 H       1  LIG1        0.0263
     79 H           0.7979   -4.6339    1.6988 H       1  LIG1        0.0263
     80 H           1.8991   -3.3151    1.3172 H       1  LIG1        0.0263
     81 H          -4.2990   -2.8242    7.1396 H       1  LIG1        0.0230
     82 H          -5.4641   -4.1015    7.5173 H       1  LIG1        0.0230
     83 H          -5.7791   -2.9915    6.1756 H       1  LIG1        0.0230
     84 H          -0.7692   -3.8842   -0.0722 H       1  LIG1        0.0230
     85 H           0.8533   -4.0806   -0.7404 H       1  LIG1        0.0230
     86 H           0.2385   -2.4561   -0.3880 H       1  LIG1        0.0230
@<TRIPOS>BOND
     1     1     2    1
     2     1     3    1
     3     1     4    1
     4     2     5    1
     5     2     6    1
     6     3     8    1
     7     3     7    1
     8     4    10   ar
     9     4     9   ar
    10     5     8    1
    11     5    11    1
    12     6    12    1
    13     7    14   ar
    14     7    13   ar
    15    11    15    1
    16    12    18    1
    17    12    17    1
    18    12    16    1
    19    13    19   ar
    20    14    20   ar
    21    15    22    2
    22    15    21   am
    23    16    23    1
    24    19    25    1
    25    19    24   ar
    26    20    24   ar
    27    20    26    1
    28    21    28    1
    29    21    27    1
    30    23    29    1
    31    24    30    1
    32    25    31    1
    33    26    32    1
    34    27    33    1
    35    28    34    1
    36    30    31    1
    37    33    35    1
    38    34    36    1
    39    35    37    1
    40    36    38    1
    41     1    39    1
    42     2    40    1
    43     3    41    1
    44     5    42    1
    45     6    43    1
    46     6    44    1
    47     8    45    1
    48     8    46    1
    49    11    47    1
    50    11    48    1
    51    13    49    1
    52    14    50    1
    53    16    51    1
    54    16    52    1
    55    17    53    1
    56    17    54    1
    57    17    55    1
    58    18    56    1
    59    18    57    1
    60    18    58    1
    61    23    59    1
    62    23    60    1
    63    27    61    1
    64    27    62    1
    65    28    63    1
    66    28    64    1
    67    29    65    1
    68    29    66    1
    69    29    67    1
    70    31    68    1
    71    31    69    1
    72    32    70    1
    73    32    71    1
    74    32    72    1
    75    33    73    1
    76    33    74    1
    77    34    75    1
    78    34    76    1
    79    35    77    1
    80    35    78    1
    81    36    79    1
    82    36    80    1
    83    37    81    1
    84    37    82    1
    85    37    83    1
    86    38    84    1
    87    38    85    1
    88    38    86    1
@<TRIPOS>MOLECULE
01012527H
 86 88 0 0 0
SMALL
GASTEIGER

@<TRIPOS>ATOM
      1 C          -0.8893    2.9720    5.4511 C.3     1  LIG1        0.0531
      2 C          -1.1068    2.0736    4.2423 C.3     1  LIG1       -0.0111
      3 C          -2.2514    3.3351    6.0276 C.3     1  LIG1        0.0375
      4 C          -0.1055    2.0104    6.3371 C.2     1  LIG1        0.0509
      5 N          -2.5418    1.5182    4.4276 N.4     1  LIG1        0.2448
      6 C          -1.0760    2.7306    2.8442 C.3     1  LIG1       -0.0039
      7 C          -2.6984    4.7150    5.5567 C.ar    1  LIG1       -0.0313
      8 C          -3.1443    2.1468    5.6768 C.3     1  LIG1       -0.0234
      9 O           1.1321    2.0011    6.1222 O.co2   1  LIG1       -0.5493
     10 O          -0.8051    1.2611    7.0728 O.co2   1  LIG1       -0.5493
     11 C          -2.5281   -0.0126    4.4923 C.3     1  LIG1        0.0465
     12 C           0.2944    3.1313    2.2198 C.3     1  LIG1       -0.0298
     13 C          -3.4393    4.9382    4.3889 C.ar    1  LIG1       -0.0122
     14 C          -2.2815    5.8378    6.3262 C.ar    1  LIG1       -0.0124
     15 C          -3.9317   -0.6359    4.5110 C.2     1  LIG1        0.2608
     16 C           0.1150    3.3336    0.6792 C.3     1  LIG1       -0.0479
     17 C           0.8436    4.4272    2.8407 C.3     1  LIG1       -0.0596
     18 C           1.3438    2.0174    2.4040 C.3     1  LIG1       -0.0596
     19 C          -3.6791    6.2432    4.0049 C.ar    1  LIG1        0.1702
     20 C          -2.5838    7.1513    5.9443 C.ar    1  LIG1        0.1656
     21 N          -4.0306   -2.0269    4.4735 N.am    1  LIG1       -0.2971
     22 O          -4.9259    0.0964    4.5505 O.2     1  LIG1       -0.2697
     23 C          -0.9266    4.3772    0.2581 C.3     1  LIG1       -0.0554
     24 C          -3.2627    7.3188    4.7533 C.ar    1  LIG1        0.2075
     25 O          -4.3240    6.6163    2.8655 O.3     1  LIG1       -0.4525
     26 O          -2.2355    8.2804    6.6261 O.3     1  LIG1       -0.4913
     27 C          -2.9287   -2.9135    4.0668 C.3     1  LIG1        0.0148
     28 C          -5.3614   -2.6276    4.6239 C.3     1  LIG1        0.0148
     29 C          -1.0039    4.4923   -1.2582 C.3     1  LIG1       -0.0653
     30 O          -3.6077    8.5049    4.1769 O.3     1  LIG1       -0.4489
     31 C          -4.2209    8.0532    2.9569 C.3     1  LIG1        0.2334
     32 C          -1.9196    8.1126    8.0031 C.3     1  LIG1        0.0790
     33 C          -2.0505   -3.3786    5.2271 C.3     1  LIG1       -0.0374
     34 C          -5.9365   -2.5508    6.0439 C.3     1  LIG1       -0.0374
     35 C          -0.8293   -4.1758    4.7607 C.3     1  LIG1       -0.0545
     36 C          -5.1522   -3.3857    7.0555 C.3     1  LIG1       -0.0545
     37 C          -1.1888   -5.5431    4.1979 C.3     1  LIG1       -0.0652
     38 C          -5.8788   -3.4900    8.3872 C.3     1  LIG1       -0.0652
     39 H          -0.2677    3.8477    5.2578 H       1  LIG1        0.0424
     40 H          -0.4487    1.1974    4.2088 H       1  LIG1        0.0858
     41 H          -2.2167    3.3918    7.1247 H       1  LIG1        0.0409
     42 H          -3.1530    1.7769    3.6469 H       1  LIG1        0.2042
     43 H          -1.7304    3.6051    2.8395 H       1  LIG1        0.0325
     44 H          -1.5394    2.0136    2.1500 H       1  LIG1        0.0325
     45 H          -4.1783    2.4242    5.4498 H       1  LIG1        0.0821
     46 H          -3.1545    1.3932    6.4703 H       1  LIG1        0.0821
     47 H          -1.9717   -0.3065    5.3839 H       1  LIG1        0.0913
     48 H          -2.0091   -0.3288    3.5843 H       1  LIG1        0.0913
     49 H          -3.8003    4.1367    3.7578 H       1  LIG1        0.0658
     50 H          -1.6916    5.6552    7.2226 H       1  LIG1        0.0658
     51 H          -0.1574    2.3707    0.2250 H       1  LIG1        0.0270
     52 H           1.0829    3.6094    0.2385 H       1  LIG1        0.0270
     53 H           1.2543    4.2563    3.8397 H       1  LIG1        0.0235
     54 H           0.0698    5.1978    2.9211 H       1  LIG1        0.0235
     55 H           1.6602    4.8380    2.2356 H       1  LIG1        0.0235
     56 H           1.6158    1.8831    3.4547 H       1  LIG1        0.0235
     57 H           2.2683    2.2539    1.8644 H       1  LIG1        0.0235
     58 H           0.9734    1.0585    2.0249 H       1  LIG1        0.0235
     59 H          -0.6773    5.3582    0.6751 H       1  LIG1        0.0263
     60 H          -1.9186    4.1026    0.6313 H       1  LIG1        0.0263
     61 H          -2.3148   -2.3883    3.3289 H       1  LIG1        0.0464
     62 H          -3.3540   -3.7726    3.5371 H       1  LIG1        0.0464
     63 H          -5.3357   -3.6728    4.2963 H       1  LIG1        0.0464
     64 H          -6.0401   -2.1013    3.9414 H       1  LIG1        0.0464
     65 H          -0.0436    4.8085   -1.6775 H       1  LIG1        0.0230
     66 H          -1.7598    5.2302   -1.5443 H       1  LIG1        0.0230
     67 H          -1.2779    3.5337   -1.7107 H       1  LIG1        0.0230
     68 H          -5.2267    8.4819    2.8885 H       1  LIG1        0.1166
     69 H          -3.6268    8.4160    2.1094 H       1  LIG1        0.1166
     70 H          -1.8589    9.1071    8.4556 H       1  LIG1        0.0660
     71 H          -0.9445    7.6306    8.1240 H       1  LIG1        0.0660
     72 H          -2.7029    7.5559    8.5296 H       1  LIG1        0.0660
     73 H          -2.6349   -3.9919    5.9194 H       1  LIG1        0.0280
     74 H          -1.6999   -2.5129    5.7989 H       1  LIG1        0.0280
     75 H          -6.9711   -2.9140    6.0065 H       1  LIG1        0.0280
     76 H          -5.9798   -1.5111    6.3878 H       1  LIG1        0.0280
     77 H          -0.1579   -4.3188    5.6156 H       1  LIG1        0.0263
     78 H          -0.2701   -3.6049    4.0102 H       1  LIG1        0.0263
     79 H          -4.1721   -2.9297    7.2292 H       1  LIG1        0.0263
     80 H          -4.9867   -4.3954    6.6624 H       1  LIG1        0.0263
     81 H          -1.7519   -6.1313    4.9296 H       1  LIG1        0.0230
     82 H          -0.2791   -6.0979    3.9470 H       1  LIG1        0.0230
     83 H          -1.7887   -5.4594    3.2872 H       1  LIG1        0.0230
     84 H          -6.0403   -2.5005    8.8257 H       1  LIG1        0.0230
     85 H          -5.2890   -4.0836    9.0931 H       1  LIG1        0.0230
     86 H          -6.8513   -3.9777    8.2661 H       1  LIG1        0.0230
@<TRIPOS>BOND
     1     1     2    1
     2     1     3    1
     3     1     4    1
     4     2     5    1
     5     2     6    1
     6     3     8    1
     7     3     7    1
     8     4    10   ar
     9     4     9   ar
    10     5     8    1
    11     5    11    1
    12     6    12    1
    13     7    14   ar
    14     7    13   ar
    15    11    15    1
    16    12    18    1
    17    12    17    1
    18    12    16    1
    19    13    19   ar
    20    14    20   ar
    21    15    22    2
    22    15    21   am
    23    16    23    1
    24    19    25    1
    25    19    24   ar
    26    20    24   ar
    27    20    26    1
    28    21    28    1
    29    21    27    1
    30    23    29    1
    31    24    30    1
    32    25    31    1
    33    26    32    1
    34    27    33    1
    35    28    34    1
    36    30    31    1
    37    33    35    1
    38    34    36    1
    39    35    37    1
    40    36    38    1
    41     1    39    1
    42     2    40    1
    43     3    41    1
    44     5    42    1
    45     6    43    1
    46     6    44    1
    47     8    45    1
    48     8    46    1
    49    11    47    1
    50    11    48    1
    51    13    49    1
    52    14    50    1
    53    16    51    1
    54    16    52    1
    55    17    53    1
    56    17    54    1
    57    17    55    1
    58    18    56    1
    59    18    57    1
    60    18    58    1
    61    23    59    1
    62    23    60    1
    63    27    61    1
    64    27    62    1
    65    28    63    1
    66    28    64    1
    67    29    65    1
    68    29    66    1
    69    29    67    1
    70    31    68    1
    71    31    69    1
    72    32    70    1
    73    32    71    1
    74    32    72    1
    75    33    73    1
    76    33    74    1
    77    34    75    1
    78    34    76    1
    79    35    77    1
    80    35    78    1
    81    36    79    1
    82    36    80    1
    83    37    81    1
    84    37    82    1
    85    37    83    1
    86    38    84    1
    87    38    85    1
    88    38    86    1
@<TRIPOS>MOLECULE
01012527H
 86 88 0 0 0
SMALL
GASTEIGER

@<TRIPOS>ATOM
      1 C          -0.9333    3.1350    5.4689 C.3     1  LIG1        0.0531
      2 C          -1.0986    2.1223    4.3446 C.3     1  LIG1       -0.0111
      3 C          -2.2874    3.3650    6.1229 C.3     1  LIG1        0.0375
      4 C           0.0037    2.3241    6.3596 C.2     1  LIG1        0.0509
      5 N          -2.4985    1.5057    4.5811 N.4     1  LIG1        0.2448
      6 C          -1.0951    2.6726    2.8984 C.3     1  LIG1       -0.0039
      7 C          -2.9610    4.6502    5.6531 C.ar    1  LIG1       -0.0313
      8 C          -3.0633    2.0772    5.8712 C.3     1  LIG1       -0.0234
      9 O          -0.5617    1.4562    7.0798 O.co2   1  LIG1       -0.5493
     10 O           1.2256    2.5357    6.1593 O.co2   1  LIG1       -0.5493
     11 C          -2.4509   -0.0183    4.6140 C.3     1  LIG1        0.0465
     12 C           0.2769    3.0357    2.2423 C.3     1  LIG1       -0.0298
     13 C          -2.7408    5.8159    6.4121 C.ar    1  LIG1       -0.0122
     14 C          -3.8039    4.7279    4.5173 C.ar    1  LIG1       -0.0124
     15 C          -3.8543   -0.6425    4.5201 C.2     1  LIG1        0.2608
     16 C           0.0737    3.2667    0.7072 C.3     1  LIG1       -0.0479
     17 C           0.8232    4.3583    2.8187 C.3     1  LIG1       -0.0596
     18 C           1.3329    1.9394    2.4699 C.3     1  LIG1       -0.0596
     19 C          -3.3830    6.9788    6.0435 C.ar    1  LIG1        0.1702
     20 C          -4.4426    5.9251    4.1585 C.ar    1  LIG1        0.1656
     21 N          -3.9505   -2.0355    4.5452 N.am    1  LIG1       -0.2971
     22 O          -4.8378    0.0990    4.4126 O.2     1  LIG1       -0.2697
     23 C          -0.2403    2.0194   -0.1319 C.3     1  LIG1       -0.0554
     24 C          -4.2084    7.0359    4.9475 C.ar    1  LIG1        0.2075
     25 O          -3.3053    8.1654    6.7035 O.3     1  LIG1       -0.4525
     26 O          -5.2694    6.0936    3.0857 O.3     1  LIG1       -0.4913
     27 C          -2.7982   -2.8906    4.2192 C.3     1  LIG1        0.0148
     28 C          -5.2940   -2.6367    4.4926 C.3     1  LIG1        0.0148
     29 C          -0.3952    2.3698   -1.6056 C.3     1  LIG1       -0.0653
     30 O          -4.7525    8.2752    4.7827 O.3     1  LIG1       -0.4489
     31 C          -4.2237    8.9641    5.9314 C.3     1  LIG1        0.2334
     32 C          -5.8738    4.9218    2.5562 C.3     1  LIG1        0.0790
     33 C          -2.5765   -2.9885    2.7060 C.3     1  LIG1       -0.0374
     34 C          -5.4640   -3.8384    5.4280 C.3     1  LIG1       -0.0374
     35 C          -1.4119   -3.8981    2.3139 C.3     1  LIG1       -0.0545
     36 C          -6.9179   -4.3074    5.4902 C.3     1  LIG1       -0.0545
     37 C          -0.0744   -3.4643    2.8934 C.3     1  LIG1       -0.0652
     38 C          -7.0621   -5.5443    6.3644 C.3     1  LIG1       -0.0652
     39 H          -0.4457    4.0674    5.1816 H       1  LIG1        0.0424
     40 H          -0.3968    1.2805    4.3816 H       1  LIG1        0.0858
     41 H          -2.1833    3.4636    7.2128 H       1  LIG1        0.0409
     42 H          -3.1515    1.7601    3.8334 H       1  LIG1        0.2042
     43 H          -1.7611    3.5407    2.8302 H       1  LIG1        0.0325
     44 H          -1.5605    1.8997    2.2748 H       1  LIG1        0.0325
     45 H          -4.1391    2.2253    5.7356 H       1  LIG1        0.0821
     46 H          -2.9184    1.3437    6.6699 H       1  LIG1        0.0821
     47 H          -1.9465   -0.3264    5.5339 H       1  LIG1        0.0913
     48 H          -1.8739   -0.3158    3.7350 H       1  LIG1        0.0913
     49 H          -2.0953    5.8116    7.2868 H       1  LIG1        0.0658
     50 H          -3.9619    3.8487    3.9069 H       1  LIG1        0.0658
     51 H           0.9846    3.7208    0.2928 H       1  LIG1        0.0270
     52 H          -0.7259    4.0054    0.5612 H       1  LIG1        0.0270
     53 H           1.1850    4.2403    3.8430 H       1  LIG1        0.0235
     54 H           0.0579    5.1422    2.8095 H       1  LIG1        0.0235
     55 H           1.6758    4.7235    2.2339 H       1  LIG1        0.0235
     56 H           1.6569    1.8990    3.5143 H       1  LIG1        0.0235
     57 H           2.2289    2.1264    1.8665 H       1  LIG1        0.0235
     58 H           0.9492    0.9479    2.2078 H       1  LIG1        0.0235
     59 H          -1.1620    1.5394    0.2090 H       1  LIG1        0.0263
     60 H           0.5660    1.2842   -0.0399 H       1  LIG1        0.0263
     61 H          -2.9378   -3.8836    4.6533 H       1  LIG1        0.0464
     62 H          -1.9119   -2.4724    4.7036 H       1  LIG1        0.0464
     63 H          -5.4913   -2.9261    3.4542 H       1  LIG1        0.0464
     64 H          -6.0408   -1.8801    4.7585 H       1  LIG1        0.0464
     65 H          -1.2168    3.0767   -1.7572 H       1  LIG1        0.0230
     66 H          -0.6104    1.4680   -2.1878 H       1  LIG1        0.0230
     67 H           0.5225    2.8165   -2.0015 H       1  LIG1        0.0230
     68 H          -3.7069    9.8692    5.5941 H       1  LIG1        0.1166
     69 H          -5.0596    9.2579    6.5778 H       1  LIG1        0.1166
     70 H          -6.6506    5.2345    1.8519 H       1  LIG1        0.0660
     71 H          -6.3544    4.3287    3.3418 H       1  LIG1        0.0660
     72 H          -5.1433    4.3228    2.0032 H       1  LIG1        0.0660
     73 H          -2.4111   -1.9904    2.2832 H       1  LIG1        0.0280
     74 H          -3.4865   -3.3691    2.2265 H       1  LIG1        0.0280
     75 H          -5.1191   -3.5729    6.4350 H       1  LIG1        0.0280
     76 H          -4.8430   -4.6737    5.0866 H       1  LIG1        0.0280
     77 H          -1.3339   -3.9053    1.2199 H       1  LIG1        0.0263
     78 H          -1.6257   -4.9276    2.6230 H       1  LIG1        0.0263
     79 H          -7.2795   -4.5369    4.4812 H       1  LIG1        0.0263
     80 H          -7.5514   -3.5074    5.8900 H       1  LIG1        0.0263
     81 H           0.1289   -2.4110    2.6762 H       1  LIG1        0.0230
     82 H           0.7337   -4.0637    2.4625 H       1  LIG1        0.0230
     83 H          -0.0459   -3.6070    3.9780 H       1  LIG1        0.0230
     84 H          -6.4688   -6.3750    5.9685 H       1  LIG1        0.0230
     85 H          -8.1082   -5.8635    6.4024 H       1  LIG1        0.0230
     86 H          -6.7299   -5.3433    7.3879 H       1  LIG1        0.0230
@<TRIPOS>BOND
     1     1     2    1
     2     1     3    1
     3     1     4    1
     4     2     5    1
     5     2     6    1
     6     3     8    1
     7     3     7    1
     8     4    10   ar
     9     4     9   ar
    10     5     8    1
    11     5    11    1
    12     6    12    1
    13     7    14   ar
    14     7    13   ar
    15    11    15    1
    16    12    18    1
    17    12    17    1
    18    12    16    1
    19    13    19   ar
    20    14    20   ar
    21    15    22    2
    22    15    21   am
    23    16    23    1
    24    19    25    1
    25    19    24   ar
    26    20    24   ar
    27    20    26    1
    28    21    28    1
    29    21    27    1
    30    23    29    1
    31    24    30    1
    32    25    31    1
    33    26    32    1
    34    27    33    1
    35    28    34    1
    36    30    31    1
    37    33    35    1
    38    34    36    1
    39    35    37    1
    40    36    38    1
    41     1    39    1
    42     2    40    1
    43     3    41    1
    44     5    42    1
    45     6    43    1
    46     6    44    1
    47     8    45    1
    48     8    46    1
    49    11    47    1
    50    11    48    1
    51    13    49    1
    52    14    50    1
    53    16    51    1
    54    16    52    1
    55    17    53    1
    56    17    54    1
    57    17    55    1
    58    18    56    1
    59    18    57    1
    60    18    58    1
    61    23    59    1
    62    23    60    1
    63    27    61    1
    64    27    62    1
    65    28    63    1
    66    28    64    1
    67    29    65    1
    68    29    66    1
    69    29    67    1
    70    31    68    1
    71    31    69    1
    72    32    70    1
    73    32    71    1
    74    32    72    1
    75    33    73    1
    76    33    74    1
    77    34    75    1
    78    34    76    1
    79    35    77    1
    80    35    78    1
    81    36    79    1
    82    36    80    1
    83    37    81    1
    84    37    82    1
    85    37    83    1
    86    38    84    1
    87    38    85    1
    88    38    86    1
@<TRIPOS>MOLECULE
01012527H
 86 88 0 0 0
SMALL
GASTEIGER

@<TRIPOS>ATOM
      1 C          -0.8757    2.9700    5.4774 C.3     1  LIG1        0.0531
      2 C          -1.0668    2.0794    4.2576 C.3     1  LIG1       -0.0111
      3 C          -2.2478    3.3089    6.0434 C.3     1  LIG1        0.0375
      4 C          -0.0842    2.0095    6.3562 C.2     1  LIG1        0.0509
      5 N          -2.5069    1.5221    4.4102 N.4     1  LIG1        0.2448
      6 C          -0.9983    2.7487    2.8657 C.3     1  LIG1       -0.0039
      7 C          -2.7086    4.6851    5.5738 C.ar    1  LIG1       -0.0313
      8 C          -3.1191    2.1122    5.6725 C.3     1  LIG1       -0.0234
      9 O           1.1563    2.0293    6.1569 O.co2   1  LIG1       -0.5493
     10 O          -0.7782    1.2338    7.0678 O.co2   1  LIG1       -0.5493
     11 C          -2.5000   -0.0096    4.4270 C.3     1  LIG1        0.0465
     12 C           0.3979    3.1069    2.2500 C.3     1  LIG1       -0.0298
     13 C          -3.4393    4.9036    4.3985 C.ar    1  LIG1       -0.0122
     14 C          -2.3136    5.8098    6.3524 C.ar    1  LIG1       -0.0124
     15 C          -3.9032   -0.6312    4.4698 C.2     1  LIG1        0.2608
     16 C           0.1364    3.4055    0.7352 C.3     1  LIG1       -0.0479
     17 C           1.0016    4.3447    2.9326 C.3     1  LIG1       -0.0596
     18 C           1.3824    1.9325    2.3878 C.3     1  LIG1       -0.0596
     19 C          -3.6955    6.2071    4.0203 C.ar    1  LIG1        0.1702
     20 C          -2.6276    7.1213    5.9729 C.ar    1  LIG1        0.1656
     21 N          -4.0015   -2.0268    4.5103 N.am    1  LIG1       -0.2971
     22 O          -4.8954    0.1048    4.4660 O.2     1  LIG1       -0.2697
     23 C           1.3429    3.8347   -0.1090 C.3     1  LIG1       -0.0554
     24 C          -3.3008    7.2845    4.7778 C.ar    1  LIG1        0.2075
     25 O          -4.3362    6.5771    2.8775 O.3     1  LIG1       -0.4525
     26 O          -2.3004    8.2532    6.6602 O.3     1  LIG1       -0.4913
     27 C          -2.9248   -2.9069    4.0226 C.3     1  LIG1        0.0148
     28 C          -5.3559   -2.5919    4.5882 C.3     1  LIG1        0.0148
     29 C           0.9621    3.9756   -1.5772 C.3     1  LIG1       -0.0653
     30 O          -3.6570    8.4687    4.2040 O.3     1  LIG1       -0.4489
     31 C          -4.2567    8.0150    2.9781 C.3     1  LIG1        0.2334
     32 C          -1.9236    8.0830    8.0212 C.3     1  LIG1        0.0790
     33 C          -2.7017   -4.1747    4.8503 C.3     1  LIG1       -0.0374
     34 C          -5.9833   -2.4950    5.9857 C.3     1  LIG1       -0.0374
     35 C          -1.5184   -5.0117    4.3542 C.3     1  LIG1       -0.0545
     36 C          -5.2629   -3.3474    7.0314 C.3     1  LIG1       -0.0545
     37 C          -1.7116   -5.5628    2.9493 C.3     1  LIG1       -0.0652
     38 C          -5.9867   -3.3316    8.3690 C.3     1  LIG1       -0.0652
     39 H          -0.2693    3.8593    5.3002 H       1  LIG1        0.0424
     40 H          -0.4137    1.1998    4.2334 H       1  LIG1        0.0858
     41 H          -2.2251    3.3577    7.1410 H       1  LIG1        0.0409
     42 H          -3.1089    1.8094    3.6325 H       1  LIG1        0.2042
     43 H          -1.6207    3.6484    2.8523 H       1  LIG1        0.0325
     44 H          -1.4810    2.0530    2.1630 H       1  LIG1        0.0325
     45 H          -4.1584    2.3759    5.4538 H       1  LIG1        0.0821
     46 H          -3.1129    1.3418    6.4498 H       1  LIG1        0.0821
     47 H          -1.9143   -0.3400    5.2889 H       1  LIG1        0.0913
     48 H          -2.0202   -0.2984    3.4871 H       1  LIG1        0.0913
     49 H          -3.7803    4.1009    3.7579 H       1  LIG1        0.0658
     50 H          -1.7317    5.6290    7.2542 H       1  LIG1        0.0658
     51 H          -0.6307    4.1881    0.6565 H       1  LIG1        0.0270
     52 H          -0.2970    2.5075    0.2733 H       1  LIG1        0.0270
     53 H           1.2936    4.1349    3.9643 H       1  LIG1        0.0235
     54 H           0.2944    5.1813    2.9360 H       1  LIG1        0.0235
     55 H           1.9147    4.6812    2.4318 H       1  LIG1        0.0235
     56 H           1.5944    1.7036    3.4365 H       1  LIG1        0.0235
     57 H           2.3495    2.1564    1.9267 H       1  LIG1        0.0235
     58 H           0.9856    1.0266    1.9171 H       1  LIG1        0.0235
     59 H           2.1527    3.1031   -0.0338 H       1  LIG1        0.0263
     60 H           1.7311    4.7966    0.2403 H       1  LIG1        0.0263
     61 H          -1.9798   -2.3619    3.9802 H       1  LIG1        0.0464
     62 H          -3.1873   -3.1588    2.9889 H       1  LIG1        0.0464
     63 H          -5.3470   -3.6338    4.2525 H       1  LIG1        0.0464
     64 H          -5.9905   -2.0487    3.8769 H       1  LIG1        0.0464
     65 H           0.6137    3.0210   -1.9845 H       1  LIG1        0.0230
     66 H           1.8283    4.2973   -2.1637 H       1  LIG1        0.0230
     67 H           0.1675    4.7166   -1.7085 H       1  LIG1        0.0230
     68 H          -5.2690    8.4279    2.9066 H       1  LIG1        0.1166
     69 H          -3.6639    8.3923    2.1358 H       1  LIG1        0.1166
     70 H          -1.8595    9.0757    8.4771 H       1  LIG1        0.0660
     71 H          -0.9368    7.6159    8.0980 H       1  LIG1        0.0660
     72 H          -2.6754    7.5108    8.5761 H       1  LIG1        0.0660
     73 H          -3.5988   -4.8023    4.8534 H       1  LIG1        0.0280
     74 H          -2.5084   -3.8927    5.8917 H       1  LIG1        0.0280
     75 H          -7.0266   -2.8264    5.9135 H       1  LIG1        0.0280
     76 H          -6.0059   -1.4523    6.3229 H       1  LIG1        0.0280
     77 H          -1.3762   -5.8532    5.0426 H       1  LIG1        0.0263
     78 H          -0.5992   -4.4157    4.3880 H       1  LIG1        0.0263
     79 H          -4.2447   -2.9734    7.1811 H       1  LIG1        0.0263
     80 H          -5.1891   -4.3837    6.6831 H       1  LIG1        0.0263
     81 H          -2.6476   -6.1251    2.8716 H       1  LIG1        0.0230
     82 H          -0.8884   -6.2376    2.6935 H       1  LIG1        0.0230
     83 H          -1.7251   -4.7628    2.2032 H       1  LIG1        0.0230
     84 H          -6.0569   -2.3142    8.7659 H       1  LIG1        0.0230
     85 H          -5.4465   -3.9444    9.0979 H       1  LIG1        0.0230
     86 H          -6.9993   -3.7357    8.2721 H       1  LIG1        0.0230
@<TRIPOS>BOND
     1     1     2    1
     2     1     3    1
     3     1     4    1
     4     2     5    1
     5     2     6    1
     6     3     8    1
     7     3     7    1
     8     4    10   ar
     9     4     9   ar
    10     5     8    1
    11     5    11    1
    12     6    12    1
    13     7    14   ar
    14     7    13   ar
    15    11    15    1
    16    12    18    1
    17    12    17    1
    18    12    16    1
    19    13    19   ar
    20    14    20   ar
    21    15    22    2
    22    15    21   am
    23    16    23    1
    24    19    25    1
    25    19    24   ar
    26    20    24   ar
    27    20    26    1
    28    21    28    1
    29    21    27    1
    30    23    29    1
    31    24    30    1
    32    25    31    1
    33    26    32    1
    34    27    33    1
    35    28    34    1
    36    30    31    1
    37    33    35    1
    38    34    36    1
    39    35    37    1
    40    36    38    1
    41     1    39    1
    42     2    40    1
    43     3    41    1
    44     5    42    1
    45     6    43    1
    46     6    44    1
    47     8    45    1
    48     8    46    1
    49    11    47    1
    50    11    48    1
    51    13    49    1
    52    14    50    1
    53    16    51    1
    54    16    52    1
    55    17    53    1
    56    17    54    1
    57    17    55    1
    58    18    56    1
    59    18    57    1
    60    18    58    1
    61    23    59    1
    62    23    60    1
    63    27    61    1
    64    27    62    1
    65    28    63    1
    66    28    64    1
    67    29    65    1
    68    29    66    1
    69    29    67    1
    70    31    68    1
    71    31    69    1
    72    32    70    1
    73    32    71    1
    74    32    72    1
    75    33    73    1
    76    33    74    1
    77    34    75    1
    78    34    76    1
    79    35    77    1
    80    35    78    1
    81    36    79    1
    82    36    80    1
    83    37    81    1
    84    37    82    1
    85    37    83    1
    86    38    84    1
    87    38    85    1
    88    38    86    1
@<TRIPOS>MOLECULE
01012527H
 86 88 0 0 0
SMALL
GASTEIGER

@<TRIPOS>ATOM
      1 C          -0.9103    2.9987    5.4766 C.3     1  LIG1        0.0531
      2 C          -1.0332    2.0755    4.2710 C.3     1  LIG1       -0.0111
      3 C          -2.3129    3.4219    5.8956 C.3     1  LIG1        0.0375
      4 C          -0.2518    2.0511    6.4723 C.2     1  LIG1        0.0509
      5 N          -2.4684    1.4838    4.4092 N.4     1  LIG1        0.2448
      6 C          -0.9597    2.7431    2.8746 C.3     1  LIG1       -0.0039
      7 C          -2.6761    4.8200    5.4165 C.ar    1  LIG1       -0.0313
      8 C          -3.2187    2.2747    5.4570 C.3     1  LIG1       -0.0234
      9 O           0.9813    1.8835    6.2963 O.co2   1  LIG1       -0.5493
     10 O          -1.0418    1.4589    7.2583 O.co2   1  LIG1       -0.5493
     11 C          -2.4430   -0.0119    4.7694 C.3     1  LIG1        0.0465
     12 C           0.4313    3.1338    2.2695 C.3     1  LIG1       -0.0298
     13 C          -3.3424    5.0856    4.2139 C.ar    1  LIG1       -0.0122
     14 C          -2.2971    5.9134    6.2456 C.ar    1  LIG1       -0.0124
     15 C          -1.9407   -0.8849    3.6135 C.2     1  LIG1        0.2608
     16 C           0.1765    3.3928    0.7453 C.3     1  LIG1       -0.0479
     17 C           0.9835    4.4059    2.9318 C.3     1  LIG1       -0.0596
     18 C           1.4504    1.9957    2.4453 C.3     1  LIG1       -0.0596
     19 C          -3.5682    6.4035    3.8696 C.ar    1  LIG1        0.1702
     20 C          -2.5780    7.2401    5.8968 C.ar    1  LIG1        0.1656
     21 N          -1.4928   -2.1732    3.8917 N.am    1  LIG1       -0.2971
     22 O          -1.9789   -0.4228    2.4676 O.2     1  LIG1       -0.2697
     23 C           1.3741    3.8462   -0.0979 C.3     1  LIG1       -0.0554
     24 C          -3.1972    7.4506    4.6804 C.ar    1  LIG1        0.2075
     25 O          -4.1661    6.8179    2.7193 O.3     1  LIG1       -0.4525
     26 O          -2.2740    8.3424    6.6404 O.3     1  LIG1       -0.4913
     27 C          -1.3972   -2.7380    5.2511 C.3     1  LIG1        0.0148
     28 C          -0.9013   -2.9486    2.7950 C.3     1  LIG1        0.0148
     29 C           0.9942    3.9621   -1.5690 C.3     1  LIG1       -0.0653
     30 O          -3.5266    8.6566    4.1369 O.3     1  LIG1       -0.4489
     31 C          -4.0817    8.2504    2.8737 C.3     1  LIG1        0.2334
     32 C          -1.9919    8.1196    8.0171 C.3     1  LIG1        0.0790
     33 C          -2.7485   -3.2273    5.7798 C.3     1  LIG1       -0.0374
     34 C          -1.8907   -3.4292    1.7279 C.3     1  LIG1       -0.0374
     35 C          -2.6960   -3.6976    7.2344 C.3     1  LIG1       -0.0545
     36 C          -2.9729   -4.3558    2.2765 C.3     1  LIG1       -0.0545
     37 C          -1.9269   -4.9970    7.4142 C.3     1  LIG1       -0.0652
     38 C          -3.8107   -4.9558    1.1581 C.3     1  LIG1       -0.0652
     39 H          -0.2454    3.8505    5.3308 H       1  LIG1        0.0424
     40 H          -0.3551    1.2165    4.2732 H       1  LIG1        0.0858
     41 H          -2.3941    3.4749    6.9908 H       1  LIG1        0.0409
     42 H          -2.9338    1.5328    3.4950 H       1  LIG1        0.2042
     43 H          -1.6021    3.6261    2.8471 H       1  LIG1        0.0325
     44 H          -1.4158    2.0422    2.1627 H       1  LIG1        0.0325
     45 H          -4.1725    2.5805    5.0179 H       1  LIG1        0.0821
     46 H          -3.4369    1.6074    6.2986 H       1  LIG1        0.0821
     47 H          -3.4830   -0.2894    4.9666 H       1  LIG1        0.0913
     48 H          -1.8385   -0.1269    5.6634 H       1  LIG1        0.0913
     49 H          -3.6649    4.3075    3.5334 H       1  LIG1        0.0658
     50 H          -1.7655    5.6950    7.1702 H       1  LIG1        0.0658
     51 H          -0.6168    4.1463    0.6436 H       1  LIG1        0.0270
     52 H          -0.2210    2.4713    0.2971 H       1  LIG1        0.0270
     53 H           1.2628    4.2308    3.9732 H       1  LIG1        0.0235
     54 H           0.2505    5.2195    2.9022 H       1  LIG1        0.0235
     55 H           1.8941    4.7590    2.4378 H       1  LIG1        0.0235
     56 H           1.6579    1.8011    3.5021 H       1  LIG1        0.0235
     57 H           2.4137    2.2389    1.9861 H       1  LIG1        0.0235
     58 H           1.0866    1.0662    1.9943 H       1  LIG1        0.0235
     59 H           2.2023    3.1368   -0.0116 H       1  LIG1        0.0263
     60 H           1.7347    4.8219    0.2421 H       1  LIG1        0.0263
     61 H          -0.9798   -1.9779    5.9180 H       1  LIG1        0.0464
     62 H          -0.6759   -3.5615    5.2454 H       1  LIG1        0.0464
     63 H          -0.3599   -3.8105    3.2006 H       1  LIG1        0.0464
     64 H          -0.1513   -2.3087    2.3129 H       1  LIG1        0.0464
     65 H           0.6701    2.9952   -1.9676 H       1  LIG1        0.0230
     66 H           1.8535    4.2995   -2.1570 H       1  LIG1        0.0230
     67 H           0.1816    4.6819   -1.7102 H       1  LIG1        0.0230
     68 H          -5.0885    8.6722    2.7796 H       1  LIG1        0.1166
     69 H          -3.4556    8.6528    2.0685 H       1  LIG1        0.1166
     70 H          -1.9440    9.0950    8.5111 H       1  LIG1        0.0660
     71 H          -1.0197    7.6332    8.1438 H       1  LIG1        0.0660
     72 H          -2.7878    7.5420    8.5005 H       1  LIG1        0.0660
     73 H          -3.1223   -4.0423    5.1516 H       1  LIG1        0.0280
     74 H          -3.4902   -2.4253    5.7099 H       1  LIG1        0.0280
     75 H          -1.3186   -3.9596    0.9561 H       1  LIG1        0.0280
     76 H          -2.3651   -2.5769    1.2294 H       1  LIG1        0.0280
     77 H          -3.7232   -3.8534    7.5858 H       1  LIG1        0.0263
     78 H          -2.2591   -2.9176    7.8685 H       1  LIG1        0.0263
     79 H          -3.6358   -3.7955    2.9436 H       1  LIG1        0.0263
     80 H          -2.5178   -5.1648    2.8591 H       1  LIG1        0.0263
     81 H          -2.3366   -5.7860    6.7753 H       1  LIG1        0.0230
     82 H          -1.9970   -5.3343    8.4533 H       1  LIG1        0.0230
     83 H          -0.8672   -4.8729    7.1741 H       1  LIG1        0.0230
     84 H          -4.2980   -4.1719    0.5697 H       1  LIG1        0.0230
     85 H          -4.5891   -5.6030    1.5739 H       1  LIG1        0.0230
     86 H          -3.1924   -5.5578    0.4845 H       1  LIG1        0.0230
@<TRIPOS>BOND
     1     1     2    1
     2     1     3    1
     3     1     4    1
     4     2     5    1
     5     2     6    1
     6     3     8    1
     7     3     7    1
     8     4    10   ar
     9     4     9   ar
    10     5     8    1
    11     5    11    1
    12     6    12    1
    13     7    14   ar
    14     7    13   ar
    15    11    15    1
    16    12    18    1
    17    12    17    1
    18    12    16    1
    19    13    19   ar
    20    14    20   ar
    21    15    22    2
    22    15    21   am
    23    16    23    1
    24    19    25    1
    25    19    24   ar
    26    20    24   ar
    27    20    26    1
    28    21    28    1
    29    21    27    1
    30    23    29    1
    31    24    30    1
    32    25    31    1
    33    26    32    1
    34    27    33    1
    35    28    34    1
    36    30    31    1
    37    33    35    1
    38    34    36    1
    39    35    37    1
    40    36    38    1
    41     1    39    1
    42     2    40    1
    43     3    41    1
    44     5    42    1
    45     6    43    1
    46     6    44    1
    47     8    45    1
    48     8    46    1
    49    11    47    1
    50    11    48    1
    51    13    49    1
    52    14    50    1
    53    16    51    1
    54    16    52    1
    55    17    53    1
    56    17    54    1
    57    17    55    1
    58    18    56    1
    59    18    57    1
    60    18    58    1
    61    23    59    1
    62    23    60    1
    63    27    61    1
    64    27    62    1
    65    28    63    1
    66    28    64    1
    67    29    65    1
    68    29    66    1
    69    29    67    1
    70    31    68    1
    71    31    69    1
    72    32    70    1
    73    32    71    1
    74    32    72    1
    75    33    73    1
    76    33    74    1
    77    34    75    1
    78    34    76    1
    79    35    77    1
    80    35    78    1
    81    36    79    1
    82    36    80    1
    83    37    81    1
    84    37    82    1
    85    37    83    1
    86    38    84    1
    87    38    85    1
    88    38    86    1
@<TRIPOS>MOLECULE
01012527H
 86 88 0 0 0
SMALL
GASTEIGER

@<TRIPOS>ATOM
      1 C          -0.9504    3.3127    5.4852 C.3     1  LIG1        0.0531
      2 C          -1.1365    2.2881    4.3744 C.3     1  LIG1       -0.0111
      3 C          -2.2894    3.5389    6.1690 C.3     1  LIG1        0.0375
      4 C           0.0131    2.5219    6.3662 C.2     1  LIG1        0.0509
      5 N          -2.5349    1.6761    4.6341 N.4     1  LIG1        0.2448
      6 C          -1.1387    2.8236    2.9231 C.3     1  LIG1       -0.0039
      7 C          -2.9849    4.8096    5.6968 C.ar    1  LIG1       -0.0313
      8 C          -3.0608    2.2442    5.9456 C.3     1  LIG1       -0.0234
      9 O          -0.5241    1.6487    7.1035 O.co2   1  LIG1       -0.5493
     10 O           1.2271    2.7527    6.1455 O.co2   1  LIG1       -0.5493
     11 C          -2.4705    0.1505    4.6647 C.3     1  LIG1        0.0465
     12 C           0.2419    3.1157    2.2470 C.3     1  LIG1       -0.0298
     13 C          -2.7635    5.9904    6.4248 C.ar    1  LIG1       -0.0122
     14 C          -3.8572    4.8621    4.5874 C.ar    1  LIG1       -0.0124
     15 C          -3.8497   -0.5165    4.7688 C.2     1  LIG1        0.2608
     16 C           0.0335    3.3486    0.7134 C.3     1  LIG1       -0.0479
     17 C           0.8600    4.4115    2.8106 C.3     1  LIG1       -0.0596
     18 C           1.2456    1.9691    2.4684 C.3     1  LIG1       -0.0596
     19 C          -3.4335    7.1376    6.0492 C.ar    1  LIG1        0.1702
     20 C          -4.5308    6.0401    4.2197 C.ar    1  LIG1        0.1656
     21 N          -3.9577   -1.8725    4.4710 N.am    1  LIG1       -0.2971
     22 O          -4.8307    0.1600    5.0935 O.2     1  LIG1       -0.2697
     23 C          -0.3302    2.1094   -0.1173 C.3     1  LIG1       -0.0554
     24 C          -4.2993    7.1718    4.9781 C.ar    1  LIG1        0.2075
     25 O          -3.3308    8.3357    6.6866 O.3     1  LIG1       -0.4525
     26 O          -5.3476    5.9008    3.1343 O.3     1  LIG1       -0.4913
     27 C          -2.8787   -2.6964    3.9089 C.3     1  LIG1        0.0148
     28 C          -5.2759   -2.5041    4.5989 C.3     1  LIG1        0.0148
     29 C          -0.4805    2.4574   -1.5921 C.3     1  LIG1       -0.0653
     30 O          -4.8378    8.4129    4.8165 O.3     1  LIG1       -0.4489
     31 C          -4.2431    9.1328    5.9132 C.3     1  LIG1        0.2334
     32 C          -6.2384    6.9752    2.8593 C.3     1  LIG1        0.0790
     33 C          -1.8062   -3.0761    4.9316 C.3     1  LIG1       -0.0374
     34 C          -6.0815   -2.5064    3.2920 C.3     1  LIG1       -0.0374
     35 C          -0.7411   -3.9780    4.3056 C.3     1  LIG1       -0.0545
     36 C          -6.5482   -1.1133    2.8612 C.3     1  LIG1       -0.0545
     37 C           0.4964   -4.0749    5.1844 C.3     1  LIG1       -0.0652
     38 C          -7.4604   -1.1709    1.6462 C.3     1  LIG1       -0.0652
     39 H          -0.4787    4.2463    5.1719 H       1  LIG1        0.0424
     40 H          -0.4380    1.4443    4.4168 H       1  LIG1        0.0858
     41 H          -2.1631    3.6508    7.2551 H       1  LIG1        0.0409
     42 H          -3.2016    1.9448    3.9055 H       1  LIG1        0.2042
     43 H          -1.7646    3.7220    2.8607 H       1  LIG1        0.0325
     44 H          -1.6486    2.0695    2.3112 H       1  LIG1        0.0325
     45 H          -4.1403    2.3918    5.8468 H       1  LIG1        0.0821
     46 H          -2.8823    1.5111    6.7379 H       1  LIG1        0.0821
     47 H          -1.8564   -0.1301    5.5230 H       1  LIG1        0.0913
     48 H          -1.9902   -0.1374    3.7268 H       1  LIG1        0.0913
     49 H          -2.0944    6.0124    7.2814 H       1  LIG1        0.0658
     50 H          -4.0543    3.9798    3.9877 H       1  LIG1        0.0658
     51 H           0.9563    3.7686    0.2898 H       1  LIG1        0.0270
     52 H          -0.7407    4.1144    0.5707 H       1  LIG1        0.0270
     53 H           1.2009    4.2883    3.8411 H       1  LIG1        0.0235
     54 H           0.1433    5.2395    2.7804 H       1  LIG1        0.0235
     55 H           1.7399    4.7149    2.2310 H       1  LIG1        0.0235
     56 H           1.5904    1.9254    3.5062 H       1  LIG1        0.0235
     57 H           2.1368    2.1007    1.8440 H       1  LIG1        0.0235
     58 H           0.8050    0.9957    2.2283 H       1  LIG1        0.0235
     59 H          -1.2657    1.6639    0.2331 H       1  LIG1        0.0263
     60 H           0.4503    1.3466   -0.0272 H       1  LIG1        0.0263
     61 H          -2.4301   -2.1459    3.0754 H       1  LIG1        0.0464
     62 H          -3.3165   -3.6066    3.4818 H       1  LIG1        0.0464
     63 H          -5.8516   -2.0011    5.3847 H       1  LIG1        0.0464
     64 H          -5.1201   -3.5343    4.9407 H       1  LIG1        0.0464
     65 H          -1.2811    3.1879   -1.7438 H       1  LIG1        0.0230
     66 H          -0.7244    1.5598   -2.1693 H       1  LIG1        0.0230
     67 H           0.4487    2.8747   -1.9936 H       1  LIG1        0.0230
     68 H          -3.7041    9.9994    5.5142 H       1  LIG1        0.1166
     69 H          -5.0435    9.4903    6.5717 H       1  LIG1        0.1166
     70 H          -6.8984    6.6568    2.0461 H       1  LIG1        0.0660
     71 H          -5.6948    7.8592    2.5124 H       1  LIG1        0.0660
     72 H          -6.8713    7.2007    3.7241 H       1  LIG1        0.0660
     73 H          -2.2661   -3.5833    5.7884 H       1  LIG1        0.0280
     74 H          -1.3231   -2.1799    5.3278 H       1  LIG1        0.0280
     75 H          -6.9621   -3.1440    3.4381 H       1  LIG1        0.0280
     76 H          -5.4909   -2.9579    2.4861 H       1  LIG1        0.0280
     77 H          -0.4439   -3.5900    3.3243 H       1  LIG1        0.0263
     78 H          -1.1570   -4.9795    4.1461 H       1  LIG1        0.0263
     79 H          -5.6853   -0.4853    2.6153 H       1  LIG1        0.0263
     80 H          -7.0865   -0.6291    3.6842 H       1  LIG1        0.0263
     81 H           0.9793   -3.0965    5.2819 H       1  LIG1        0.0230
     82 H           1.2226   -4.7643    4.7427 H       1  LIG1        0.0230
     83 H           0.2450   -4.4351    6.1865 H       1  LIG1        0.0230
     84 H          -6.9466   -1.6196    0.7905 H       1  LIG1        0.0230
     85 H          -7.7740   -0.1608    1.3628 H       1  LIG1        0.0230
     86 H          -8.3598   -1.7576    1.8575 H       1  LIG1        0.0230
@<TRIPOS>BOND
     1     1     2    1
     2     1     3    1
     3     1     4    1
     4     2     5    1
     5     2     6    1
     6     3     8    1
     7     3     7    1
     8     4    10   ar
     9     4     9   ar
    10     5     8    1
    11     5    11    1
    12     6    12    1
    13     7    14   ar
    14     7    13   ar
    15    11    15    1
    16    12    18    1
    17    12    17    1
    18    12    16    1
    19    13    19   ar
    20    14    20   ar
    21    15    22    2
    22    15    21   am
    23    16    23    1
    24    19    25    1
    25    19    24   ar
    26    20    24   ar
    27    20    26    1
    28    21    28    1
    29    21    27    1
    30    23    29    1
    31    24    30    1
    32    25    31    1
    33    26    32    1
    34    27    33    1
    35    28    34    1
    36    30    31    1
    37    33    35    1
    38    34    36    1
    39    35    37    1
    40    36    38    1
    41     1    39    1
    42     2    40    1
    43     3    41    1
    44     5    42    1
    45     6    43    1
    46     6    44    1
    47     8    45    1
    48     8    46    1
    49    11    47    1
    50    11    48    1
    51    13    49    1
    52    14    50    1
    53    16    51    1
    54    16    52    1
    55    17    53    1
    56    17    54    1
    57    17    55    1
    58    18    56    1
    59    18    57    1
    60    18    58    1
    61    23    59    1
    62    23    60    1
    63    27    61    1
    64    27    62    1
    65    28    63    1
    66    28    64    1
    67    29    65    1
    68    29    66    1
    69    29    67    1
    70    31    68    1
    71    31    69    1
    72    32    70    1
    73    32    71    1
    74    32    72    1
    75    33    73    1
    76    33    74    1
    77    34    75    1
    78    34    76    1
    79    35    77    1
    80    35    78    1
    81    36    79    1
    82    36    80    1
    83    37    81    1
    84    37    82    1
    85    37    83    1
    86    38    84    1
    87    38    85    1
    88    38    86    1
@<TRIPOS>MOLECULE
01012527H
 86 88 0 0 0
SMALL
GASTEIGER

@<TRIPOS>ATOM
      1 C          -0.9363    3.3063    5.4664 C.3     1  LIG1        0.0531
      2 C          -1.1238    2.2797    4.3583 C.3     1  LIG1       -0.0111
      3 C          -2.2769    3.5533    6.1389 C.3     1  LIG1        0.0375
      4 C           0.0093    2.5063    6.3576 C.2     1  LIG1        0.0509
      5 N          -2.5281    1.6786    4.6142 N.4     1  LIG1        0.2448
      6 C          -1.1165    2.8065    2.9040 C.3     1  LIG1       -0.0039
      7 C          -2.9413    4.8357    5.6556 C.ar    1  LIG1       -0.0313
      8 C          -3.0690    2.2731    5.9084 C.3     1  LIG1       -0.0234
      9 O          -0.5406    1.6437    7.0970 O.co2   1  LIG1       -0.5493
     10 O           1.2295    2.7184    6.1413 O.co2   1  LIG1       -0.5493
     11 C          -2.4665    0.1528    4.6757 C.3     1  LIG1        0.0465
     12 C           0.2649    3.1010    2.2326 C.3     1  LIG1       -0.0298
     13 C          -2.7638    5.9998    6.4209 C.ar    1  LIG1       -0.0122
     14 C          -3.7201    4.9199    4.4806 C.ar    1  LIG1       -0.0124
     15 C          -3.8463   -0.5122    4.7815 C.2     1  LIG1        0.2608
     16 C           0.0581    3.3335    0.6985 C.3     1  LIG1       -0.0479
     17 C           0.8791    4.3983    2.7972 C.3     1  LIG1       -0.0596
     18 C           1.2687    1.9557    2.4571 C.3     1  LIG1       -0.0596
     19 C          -3.3802    7.1644    6.0097 C.ar    1  LIG1        0.1702
     20 C          -4.3120    6.1233    4.0593 C.ar    1  LIG1        0.1656
     21 N          -3.9567   -1.8684    4.4839 N.am    1  LIG1       -0.2971
     22 O          -4.8258    0.1656    5.1081 O.2     1  LIG1       -0.2697
     23 C          -0.3088    2.0949   -0.1315 C.3     1  LIG1       -0.0554
     24 C          -4.1370    7.2355    4.8606 C.ar    1  LIG1        0.2075
     25 O          -3.3213    8.3477    6.6797 O.3     1  LIG1       -0.4525
     26 O          -5.0089    6.0242    2.8892 O.3     1  LIG1       -0.4913
     27 C          -2.8801   -2.6947    3.9198 C.3     1  LIG1        0.0148
     28 C          -5.2773   -2.4958    4.6080 C.3     1  LIG1        0.0148
     29 C          -0.4640    2.4443   -1.6053 C.3     1  LIG1       -0.0653
     30 O          -4.6467    8.4861    4.6803 O.3     1  LIG1       -0.4489
     31 C          -4.1603    9.1695    5.8508 C.3     1  LIG1        0.2334
     32 C          -5.4570    7.2411    2.3041 C.3     1  LIG1        0.0790
     33 C          -1.7967   -3.0623    4.9353 C.3     1  LIG1       -0.0374
     34 C          -6.0808   -2.4918    3.2996 C.3     1  LIG1       -0.0374
     35 C          -0.7380   -3.9714    4.3086 C.3     1  LIG1       -0.0545
     36 C          -6.5451   -1.0961    2.8736 C.3     1  LIG1       -0.0545
     37 C           0.5115   -4.0529    5.1730 C.3     1  LIG1       -0.0652
     38 C          -7.4579   -1.1475    1.6593 C.3     1  LIG1       -0.0652
     39 H          -0.4494    4.2319    5.1554 H       1  LIG1        0.0424
     40 H          -0.4305    1.4318    4.4051 H       1  LIG1        0.0858
     41 H          -2.1571    3.6631    7.2259 H       1  LIG1        0.0409
     42 H          -3.1870    1.9333    3.8736 H       1  LIG1        0.2042
     43 H          -1.7425    3.7027    2.8291 H       1  LIG1        0.0325
     44 H          -1.6206    2.0468    2.2944 H       1  LIG1        0.0325
     45 H          -4.1426    2.4431    5.7822 H       1  LIG1        0.0821
     46 H          -2.9215    1.5458    6.7126 H       1  LIG1        0.0821
     47 H          -1.8604   -0.1133    5.5441 H       1  LIG1        0.0913
     48 H          -1.9785   -0.1529    3.7475 H       1  LIG1        0.0913
     49 H          -2.1674    5.9976    7.3293 H       1  LIG1        0.0658
     50 H          -3.8846    4.0485    3.8558 H       1  LIG1        0.0658
     51 H           0.9820    3.7514    0.2753 H       1  LIG1        0.0270
     52 H          -0.7143    4.1011    0.5555 H       1  LIG1        0.0270
     53 H           1.2237    4.2741    3.8264 H       1  LIG1        0.0235
     54 H           0.1588    5.2233    2.7708 H       1  LIG1        0.0235
     55 H           1.7560    4.7067    2.2158 H       1  LIG1        0.0235
     56 H           1.6079    1.9112    3.4968 H       1  LIG1        0.0235
     57 H           2.1627    2.0896    1.8372 H       1  LIG1        0.0235
     58 H           0.8306    0.9820    2.2137 H       1  LIG1        0.0235
     59 H          -1.2437    1.6498    0.2209 H       1  LIG1        0.0263
     60 H           0.4716    1.3318   -0.0436 H       1  LIG1        0.0263
     61 H          -2.4418   -2.1506    3.0767 H       1  LIG1        0.0464
     62 H          -3.3193   -3.6103    3.5058 H       1  LIG1        0.0464
     63 H          -5.8526   -1.9933    5.3943 H       1  LIG1        0.0464
     64 H          -5.1257   -3.5276    4.9470 H       1  LIG1        0.0464
     65 H          -1.2657    3.1743   -1.7538 H       1  LIG1        0.0230
     66 H          -0.7098    1.5469   -2.1825 H       1  LIG1        0.0230
     67 H           0.4635    2.8624   -2.0097 H       1  LIG1        0.0230
     68 H          -3.5892   10.0488    5.5329 H       1  LIG1        0.1166
     69 H          -5.0196    9.5046    6.4434 H       1  LIG1        0.1166
     70 H          -5.8760    7.0006    1.3220 H       1  LIG1        0.0660
     71 H          -4.6280    7.9384    2.1429 H       1  LIG1        0.0660
     72 H          -6.2564    7.6917    2.9001 H       1  LIG1        0.0660
     73 H          -2.2470   -3.5597    5.8029 H       1  LIG1        0.0280
     74 H          -1.3089   -2.1620    5.3156 H       1  LIG1        0.0280
     75 H          -6.9627   -3.1286    3.4418 H       1  LIG1        0.0280
     76 H          -5.4896   -2.9411    2.4928 H       1  LIG1        0.0280
     77 H          -0.4540   -3.5976    3.3181 H       1  LIG1        0.0263
     78 H          -1.1536   -4.9765    4.1696 H       1  LIG1        0.0263
     79 H          -5.6808   -0.4692    2.6297 H       1  LIG1        0.0263
     80 H          -7.0817   -0.6139    3.6988 H       1  LIG1        0.0263
     81 H           0.9934   -3.0725    5.2495 H       1  LIG1        0.0230
     82 H           1.2332   -4.7476    4.7322 H       1  LIG1        0.0230
     83 H           0.2738   -4.3986    6.1834 H       1  LIG1        0.0230
     84 H          -6.9458   -1.5943    0.8015 H       1  LIG1        0.0230
     85 H          -7.7693   -0.1359    1.3797 H       1  LIG1        0.0230
     86 H          -8.3585   -1.7328    1.8690 H       1  LIG1        0.0230
@<TRIPOS>BOND
     1     1     2    1
     2     1     3    1
     3     1     4    1
     4     2     5    1
     5     2     6    1
     6     3     8    1
     7     3     7    1
     8     4    10   ar
     9     4     9   ar
    10     5     8    1
    11     5    11    1
    12     6    12    1
    13     7    14   ar
    14     7    13   ar
    15    11    15    1
    16    12    18    1
    17    12    17    1
    18    12    16    1
    19    13    19   ar
    20    14    20   ar
    21    15    22    2
    22    15    21   am
    23    16    23    1
    24    19    25    1
    25    19    24   ar
    26    20    24   ar
    27    20    26    1
    28    21    28    1
    29    21    27    1
    30    23    29    1
    31    24    30    1
    32    25    31    1
    33    26    32    1
    34    27    33    1
    35    28    34    1
    36    30    31    1
    37    33    35    1
    38    34    36    1
    39    35    37    1
    40    36    38    1
    41     1    39    1
    42     2    40    1
    43     3    41    1
    44     5    42    1
    45     6    43    1
    46     6    44    1
    47     8    45    1
    48     8    46    1
    49    11    47    1
    50    11    48    1
    51    13    49    1
    52    14    50    1
    53    16    51    1
    54    16    52    1
    55    17    53    1
    56    17    54    1
    57    17    55    1
    58    18    56    1
    59    18    57    1
    60    18    58    1
    61    23    59    1
    62    23    60    1
    63    27    61    1
    64    27    62    1
    65    28    63    1
    66    28    64    1
    67    29    65    1
    68    29    66    1
    69    29    67    1
    70    31    68    1
    71    31    69    1
    72    32    70    1
    73    32    71    1
    74    32    72    1
    75    33    73    1
    76    33    74    1
    77    34    75    1
    78    34    76    1
    79    35    77    1
    80    35    78    1
    81    36    79    1
    82    36    80    1
    83    37    81    1
    84    37    82    1
    85    37    83    1
    86    38    84    1
    87    38    85    1
    88    38    86    1
@<TRIPOS>MOLECULE
01012527H
 86 88 0 0 0
SMALL
GASTEIGER

@<TRIPOS>ATOM
      1 C          -0.9205    2.9837    5.4762 C.3     1  LIG1        0.0531
      2 C          -1.0670    2.0547    4.2776 C.3     1  LIG1       -0.0111
      3 C          -2.3165    3.4171    5.9089 C.3     1  LIG1        0.0375
      4 C          -0.2579    2.0385    6.4722 C.2     1  LIG1        0.0509
      5 N          -2.4968    1.4621    4.4457 N.4     1  LIG1        0.2448
      6 C          -1.0261    2.7205    2.8800 C.3     1  LIG1       -0.0039
      7 C          -2.6820    4.8113    5.4194 C.ar    1  LIG1       -0.0313
      8 C          -3.2296    2.2633    5.4984 C.3     1  LIG1       -0.0234
      9 O           0.9695    1.8531    6.2793 O.co2   1  LIG1       -0.5493
     10 O          -1.0429    1.4662    7.2787 O.co2   1  LIG1       -0.5493
     11 C          -2.4588   -0.0321    4.8125 C.3     1  LIG1        0.0465
     12 C           0.3460    3.1360    2.2701 C.3     1  LIG1       -0.0298
     13 C          -3.3849    5.0664    4.2357 C.ar    1  LIG1       -0.0122
     14 C          -2.2689    5.9133    6.2209 C.ar    1  LIG1       -0.0124
     15 C          -1.9820   -0.9022    3.6425 C.2     1  LIG1        0.2608
     16 C           0.1760    3.3447    0.7282 C.3     1  LIG1       -0.0479
     17 C           0.8798    4.4331    2.9011 C.3     1  LIG1       -0.0596
     18 C           1.4005    2.0284    2.4606 C.3     1  LIG1       -0.0596
     19 C          -3.6133    6.3813    3.8813 C.ar    1  LIG1        0.1702
     20 C          -2.5529    7.2373    5.8638 C.ar    1  LIG1        0.1656
     21 N          -1.5187   -2.1878    3.9038 N.am    1  LIG1       -0.2971
     22 O          -2.0500   -0.4367    2.4992 O.2     1  LIG1       -0.2697
     23 C          -0.8708    4.3832    0.3051 C.3     1  LIG1       -0.0554
     24 C          -3.2100    7.4365    4.6658 C.ar    1  LIG1        0.2075
     25 O          -4.2463    6.7847    2.7459 O.3     1  LIG1       -0.4525
     26 O          -2.2193    8.3470    6.5835 O.3     1  LIG1       -0.4913
     27 C          -1.3988   -2.7611    5.2570 C.3     1  LIG1        0.0148
     28 C          -0.9385   -2.9513    2.7927 C.3     1  LIG1        0.0148
     29 C          -0.9522    4.4952   -1.2113 C.3     1  LIG1       -0.0653
     30 O          -3.5511    8.6374    4.1187 O.3     1  LIG1       -0.4489
     31 C          -4.1575    8.2189    2.8834 C.3     1  LIG1        0.2334
     32 C          -1.8993    8.1404    7.9543 C.3     1  LIG1        0.0790
     33 C          -2.7362   -3.2814    5.7905 C.3     1  LIG1       -0.0374
     34 C          -1.9366   -3.4242    1.7303 C.3     1  LIG1       -0.0374
     35 C          -2.6710   -3.7331    7.2504 C.3     1  LIG1       -0.0545
     36 C          -3.0033   -4.3698    2.2766 C.3     1  LIG1       -0.0545
     37 C          -1.8565   -5.0018    7.4480 C.3     1  LIG1       -0.0652
     38 C          -3.8427   -4.9650    1.1566 C.3     1  LIG1       -0.0652
     39 H          -0.2491    3.8283    5.3134 H       1  LIG1        0.0424
     40 H          -0.3842    1.1991    4.2681 H       1  LIG1        0.0858
     41 H          -2.3828    3.4846    7.0044 H       1  LIG1        0.0409
     42 H          -2.9773    1.5032    3.5387 H       1  LIG1        0.2042
     43 H          -1.6852    3.5897    2.8738 H       1  LIG1        0.0325
     44 H          -1.4758    2.0148    2.1691 H       1  LIG1        0.0325
     45 H          -4.1907    2.5644    5.0725 H       1  LIG1        0.0821
     46 H          -3.4328    1.6036    6.3495 H       1  LIG1        0.0821
     47 H          -3.4917   -0.3133    5.0391 H       1  LIG1        0.0913
     48 H          -1.8284   -0.1414    5.6893 H       1  LIG1        0.0913
     49 H          -3.7349    4.2824    3.5758 H       1  LIG1        0.0658
     50 H          -1.7098    5.7033    7.1312 H       1  LIG1        0.0658
     51 H          -0.0863    2.3820    0.2676 H       1  LIG1        0.0270
     52 H           1.1446    3.6297    0.2952 H       1  LIG1        0.0270
     53 H           1.2774    4.2618    3.9053 H       1  LIG1        0.0235
     54 H           0.1012    5.1998    2.9723 H       1  LIG1        0.0235
     55 H           1.7023    4.8491    2.3077 H       1  LIG1        0.0235
     56 H           1.6638    1.8944    3.5143 H       1  LIG1        0.0235
     57 H           2.3276    2.2714    1.9284 H       1  LIG1        0.0235
     58 H           1.0386    1.0680    2.0767 H       1  LIG1        0.0235
     59 H          -0.6246    5.3661    0.7196 H       1  LIG1        0.0263
     60 H          -1.8615    4.1063    0.6798 H       1  LIG1        0.0263
     61 H          -0.9923   -1.9985    5.9274 H       1  LIG1        0.0464
     62 H          -0.6602   -3.5691    5.2390 H       1  LIG1        0.0464
     63 H          -0.3908   -3.8160    3.1838 H       1  LIG1        0.0464
     64 H          -0.1953   -2.3044    2.3096 H       1  LIG1        0.0464
     65 H           0.0062    4.8122   -1.6343 H       1  LIG1        0.0230
     66 H          -1.7104    5.2313   -1.4967 H       1  LIG1        0.0230
     67 H          -1.2265    3.5354   -1.6612 H       1  LIG1        0.0230
     68 H          -5.1681    8.6385    2.8273 H       1  LIG1        0.1166
     69 H          -3.5662    8.6145    2.0491 H       1  LIG1        0.1166
     70 H          -1.8375    9.1215    8.4349 H       1  LIG1        0.0660
     71 H          -0.9241    7.6549    8.0589 H       1  LIG1        0.0660
     72 H          -2.6814    7.5691    8.4667 H       1  LIG1        0.0660
     73 H          -3.0861   -4.1134    5.1704 H       1  LIG1        0.0280
     74 H          -3.4994   -2.5003    5.7104 H       1  LIG1        0.0280
     75 H          -1.3687   -3.9373    0.9438 H       1  LIG1        0.0280
     76 H          -2.4250   -2.5696    1.2497 H       1  LIG1        0.0280
     77 H          -3.6928   -3.9204    7.6019 H       1  LIG1        0.0263
     78 H          -2.2630   -2.9307    7.8757 H       1  LIG1        0.0263
     79 H          -3.6662   -3.8261    2.9575 H       1  LIG1        0.0263
     80 H          -2.5339   -5.1813    2.8442 H       1  LIG1        0.0263
     81 H          -2.2411   -5.8150    6.8239 H       1  LIG1        0.0230
     82 H          -1.9110   -5.3241    8.4928 H       1  LIG1        0.0230
     83 H          -0.8026   -4.8452    7.2015 H       1  LIG1        0.0230
     84 H          -4.3408   -4.1793    0.5797 H       1  LIG1        0.0230
     85 H          -4.6123   -5.6245    1.5694 H       1  LIG1        0.0230
     86 H          -3.2228   -5.5534    0.4725 H       1  LIG1        0.0230
@<TRIPOS>BOND
     1     1     2    1
     2     1     3    1
     3     1     4    1
     4     2     5    1
     5     2     6    1
     6     3     8    1
     7     3     7    1
     8     4    10   ar
     9     4     9   ar
    10     5     8    1
    11     5    11    1
    12     6    12    1
    13     7    14   ar
    14     7    13   ar
    15    11    15    1
    16    12    18    1
    17    12    17    1
    18    12    16    1
    19    13    19   ar
    20    14    20   ar
    21    15    22    2
    22    15    21   am
    23    16    23    1
    24    19    25    1
    25    19    24   ar
    26    20    24   ar
    27    20    26    1
    28    21    28    1
    29    21    27    1
    30    23    29    1
    31    24    30    1
    32    25    31    1
    33    26    32    1
    34    27    33    1
    35    28    34    1
    36    30    31    1
    37    33    35    1
    38    34    36    1
    39    35    37    1
    40    36    38    1
    41     1    39    1
    42     2    40    1
    43     3    41    1
    44     5    42    1
    45     6    43    1
    46     6    44    1
    47     8    45    1
    48     8    46    1
    49    11    47    1
    50    11    48    1
    51    13    49    1
    52    14    50    1
    53    16    51    1
    54    16    52    1
    55    17    53    1
    56    17    54    1
    57    17    55    1
    58    18    56    1
    59    18    57    1
    60    18    58    1
    61    23    59    1
    62    23    60    1
    63    27    61    1
    64    27    62    1
    65    28    63    1
    66    28    64    1
    67    29    65    1
    68    29    66    1
    69    29    67    1
    70    31    68    1
    71    31    69    1
    72    32    70    1
    73    32    71    1
    74    32    72    1
    75    33    73    1
    76    33    74    1
    77    34    75    1
    78    34    76    1
    79    35    77    1
    80    35    78    1
    81    36    79    1
    82    36    80    1
    83    37    81    1
    84    37    82    1
    85    37    83    1
    86    38    84    1
    87    38    85    1
    88    38    86    1
@<TRIPOS>MOLECULE
01012527H
 86 88 0 0 0
SMALL
GASTEIGER

@<TRIPOS>ATOM
      1 C          -0.8735    3.0813    5.5391 C.3     1  LIG1        0.0531
      2 C          -1.0806    2.1296    4.3707 C.3     1  LIG1       -0.0111
      3 C          -2.2346    3.4641    6.1047 C.3     1  LIG1        0.0375
      4 C          -0.0582    2.1639    6.4461 C.2     1  LIG1        0.0509
      5 N          -2.5341    1.5967    4.5643 N.4     1  LIG1        0.2448
      6 C          -1.0234    2.7229    2.9441 C.3     1  LIG1       -0.0039
      7 C          -2.6768    4.8292    5.5792 C.ar    1  LIG1       -0.0313
      8 C          -3.1264    2.2707    5.8013 C.3     1  LIG1       -0.0234
      9 O           1.1717    2.1562    6.2023 O.co2   1  LIG1       -0.5493
     10 O          -0.7422    1.4428    7.2217 O.co2   1  LIG1       -0.5493
     11 C          -2.5641    0.0754    4.7068 C.3     1  LIG1        0.0465
     12 C           0.3558    3.1471    2.3332 C.3     1  LIG1       -0.0298
     13 C          -3.3923    5.0231    4.3941 C.ar    1  LIG1       -0.0122
     14 C          -2.2672    5.9708    6.3133 C.ar    1  LIG1       -0.0124
     15 C          -3.9968   -0.4868    4.7754 C.2     1  LIG1        0.2608
     16 C           0.8684    4.4598    2.9839 C.3     1  LIG1       -0.0479
     17 C           1.3949    2.0260    2.4928 C.3     1  LIG1       -0.0596
     18 C           0.1196    3.3642    0.8181 C.3     1  LIG1       -0.0596
     19 C          -3.6120    6.3210    3.9696 C.ar    1  LIG1        0.1702
     20 C          -2.5347    7.2780    5.8875 C.ar    1  LIG1        0.1656
     21 N          -4.5113   -1.1890    3.6809 N.am    1  LIG1       -0.2971
     22 O          -4.6993   -0.2405    5.7598 O.2     1  LIG1       -0.2697
     23 C           2.0364    5.1716    2.2872 C.3     1  LIG1       -0.0554
     24 C          -3.1983    7.4248    4.6856 C.ar    1  LIG1        0.2075
     25 O          -4.2310    6.6499    2.8001 O.3     1  LIG1       -0.4525
     26 O          -2.0736    8.2504    6.7283 O.3     1  LIG1       -0.4913
     27 C          -3.9029   -1.2047    2.3448 C.3     1  LIG1        0.0148
     28 C          -5.8517   -1.7796    3.8243 C.3     1  LIG1        0.0148
     29 C           2.4206    6.4408    3.0355 C.3     1  LIG1       -0.0653
     30 O          -3.5227    8.5826    4.0413 O.3     1  LIG1       -0.4489
     31 C          -4.1034    8.0853    2.8247 C.3     1  LIG1        0.2334
     32 C          -2.3419    9.5999    6.3763 C.3     1  LIG1        0.0790
     33 C          -2.9548   -2.3822    2.1387 C.3     1  LIG1       -0.0374
     34 C          -5.9334   -2.9553    4.8056 C.3     1  LIG1       -0.0374
     35 C          -2.2607   -2.3481    0.7755 C.3     1  LIG1       -0.0545
     36 C          -5.1540   -4.1833    4.3366 C.3     1  LIG1       -0.0545
     37 C          -3.1950   -2.7082   -0.3705 C.3     1  LIG1       -0.0652
     38 C          -5.4112   -5.3920    5.2228 C.3     1  LIG1       -0.0652
     39 H          -0.2684    3.9608    5.3236 H       1  LIG1        0.0424
     40 H          -0.4366    1.2434    4.3835 H       1  LIG1        0.0858
     41 H          -2.2005    3.5647    7.1986 H       1  LIG1        0.0409
     42 H          -3.1134    1.8585    3.7662 H       1  LIG1        0.2042
     43 H          -1.7085    3.5710    2.8616 H       1  LIG1        0.0325
     44 H          -1.4407    1.9534    2.2772 H       1  LIG1        0.0325
     45 H          -4.1660    2.5273    5.5727 H       1  LIG1        0.0821
     46 H          -3.1132    1.5544    6.6271 H       1  LIG1        0.0821
     47 H          -2.0340   -0.2018    5.6260 H       1  LIG1        0.0913
     48 H          -2.0027   -0.3280    3.8636 H       1  LIG1        0.0913
     49 H          -3.7463    4.2052    3.7770 H       1  LIG1        0.0658
     50 H          -1.7094    5.8394    7.2406 H       1  LIG1        0.0658
     51 H           1.2027    4.2444    4.0039 H       1  LIG1        0.0270
     52 H           0.0328    5.1711    3.0644 H       1  LIG1        0.0270
     53 H           1.0061    1.0713    2.1206 H       1  LIG1        0.0235
     54 H           1.6823    1.8869    3.5387 H       1  LIG1        0.0235
     55 H           2.3113    2.2448    1.9324 H       1  LIG1        0.0235
     56 H          -0.3164    2.4723    0.3537 H       1  LIG1        0.0235
     57 H           1.0531    3.5679    0.2833 H       1  LIG1        0.0235
     58 H          -0.5645    4.2006    0.6410 H       1  LIG1        0.0235
     59 H           1.7669    5.4481    1.2633 H       1  LIG1        0.0263
     60 H           2.9049    4.5095    2.2370 H       1  LIG1        0.0263
     61 H          -3.3699   -0.2647    2.1963 H       1  LIG1        0.0464
     62 H          -4.7045   -1.2147    1.6066 H       1  LIG1        0.0464
     63 H          -6.2177   -2.0936    2.8459 H       1  LIG1        0.0464
     64 H          -6.5194   -0.9855    4.1734 H       1  LIG1        0.0464
     65 H           1.5902    7.1521    3.0458 H       1  LIG1        0.0230
     66 H           3.2714    6.9231    2.5520 H       1  LIG1        0.0230
     67 H           2.6970    6.2213    4.0680 H       1  LIG1        0.0230
     68 H          -5.0950    8.5284    2.6995 H       1  LIG1        0.1166
     69 H          -3.4686    8.3949    1.9866 H       1  LIG1        0.1166
     70 H          -1.9486   10.2321    7.1786 H       1  LIG1        0.0660
     71 H          -3.4183    9.7904    6.3104 H       1  LIG1        0.0660
     72 H          -1.8205    9.8763    5.4551 H       1  LIG1        0.0660
     73 H          -3.4951   -3.3303    2.2384 H       1  LIG1        0.0280
     74 H          -2.1833   -2.3829    2.9217 H       1  LIG1        0.0280
     75 H          -6.9893   -3.2259    4.9172 H       1  LIG1        0.0280
     76 H          -5.5789   -2.6631    5.7999 H       1  LIG1        0.0280
     77 H          -1.4327   -3.0666    0.7825 H       1  LIG1        0.0263
     78 H          -1.8209   -1.3582    0.5966 H       1  LIG1        0.0263
     79 H          -4.0804   -3.9689    4.3494 H       1  LIG1        0.0263
     80 H          -5.4332   -4.4341    3.3058 H       1  LIG1        0.0263
     81 H          -3.6367   -3.7006   -0.2156 H       1  LIG1        0.0230
     82 H          -2.6462   -2.7262   -1.3169 H       1  LIG1        0.0230
     83 H          -4.0117   -1.9824   -0.4690 H       1  LIG1        0.0230
     84 H          -5.1056   -5.1947    6.2537 H       1  LIG1        0.0230
     85 H          -4.8459   -6.2562    4.8575 H       1  LIG1        0.0230
     86 H          -6.4740   -5.6595    5.2228 H       1  LIG1        0.0230
@<TRIPOS>BOND
     1     1     2    1
     2     1     3    1
     3     1     4    1
     4     2     5    1
     5     2     6    1
     6     3     8    1
     7     3     7    1
     8     4    10   ar
     9     4     9   ar
    10     5     8    1
    11     5    11    1
    12     6    12    1
    13     7    14   ar
    14     7    13   ar
    15    11    15    1
    16    12    18    1
    17    12    17    1
    18    12    16    1
    19    13    19   ar
    20    14    20   ar
    21    15    22    2
    22    15    21   am
    23    16    23    1
    24    19    25    1
    25    19    24   ar
    26    20    24   ar
    27    20    26    1
    28    21    28    1
    29    21    27    1
    30    23    29    1
    31    24    30    1
    32    25    31    1
    33    26    32    1
    34    27    33    1
    35    28    34    1
    36    30    31    1
    37    33    35    1
    38    34    36    1
    39    35    37    1
    40    36    38    1
    41     1    39    1
    42     2    40    1
    43     3    41    1
    44     5    42    1
    45     6    43    1
    46     6    44    1
    47     8    45    1
    48     8    46    1
    49    11    47    1
    50    11    48    1
    51    13    49    1
    52    14    50    1
    53    16    51    1
    54    16    52    1
    55    17    53    1
    56    17    54    1
    57    17    55    1
    58    18    56    1
    59    18    57    1
    60    18    58    1
    61    23    59    1
    62    23    60    1
    63    27    61    1
    64    27    62    1
    65    28    63    1
    66    28    64    1
    67    29    65    1
    68    29    66    1
    69    29    67    1
    70    31    68    1
    71    31    69    1
    72    32    70    1
    73    32    71    1
    74    32    72    1
    75    33    73    1
    76    33    74    1
    77    34    75    1
    78    34    76    1
    79    35    77    1
    80    35    78    1
    81    36    79    1
    82    36    80    1
    83    37    81    1
    84    37    82    1
    85    37    83    1
    86    38    84    1
    87    38    85    1
    88    38    86    1
@<TRIPOS>MOLECULE
01012527H
 86 88 0 0 0
SMALL
GASTEIGER

@<TRIPOS>ATOM
      1 C          -0.7613    2.9628    5.5027 C.3     1  LIG1        0.0531
      2 C          -1.0583    2.1266    4.2664 C.3     1  LIG1       -0.0111
      3 C          -2.0931    3.3899    6.1207 C.3     1  LIG1        0.0375
      4 C          -0.0188    1.9158    6.3330 C.2     1  LIG1        0.0509
      5 N          -2.4948    1.6132    4.4914 N.4     1  LIG1        0.2448
      6 C          -1.0658    2.8411    2.8952 C.3     1  LIG1       -0.0039
      7 C          -2.6566    4.7603    5.7297 C.ar    1  LIG1       -0.0313
      8 C          -3.0268    2.2188    5.7783 C.3     1  LIG1       -0.0234
      9 O           1.1985    1.7955    6.0417 O.co2   1  LIG1       -0.5493
     10 O          -0.7365    1.2196    7.0999 O.co2   1  LIG1       -0.5493
     11 C          -2.5351    0.0853    4.5101 C.3     1  LIG1        0.0465
     12 C           0.2985    3.1338    2.1932 C.3     1  LIG1       -0.0298
     13 C          -1.8901    5.7395    5.0798 C.ar    1  LIG1       -0.0122
     14 C          -3.9683    5.1180    6.1591 C.ar    1  LIG1       -0.0124
     15 C          -3.9589   -0.4822    4.4843 C.2     1  LIG1        0.2608
     16 C           0.0684    3.2965    0.6551 C.3     1  LIG1       -0.0479
     17 C           0.9561    4.4100    2.7428 C.3     1  LIG1       -0.0596
     18 C           1.2939    1.9680    2.3657 C.3     1  LIG1       -0.0596
     19 C          -2.4466    6.9825    4.8501 C.ar    1  LIG1        0.1702
     20 C          -4.5199    6.3840    5.9061 C.ar    1  LIG1        0.1656
     21 N          -4.1042   -1.8619    4.3871 N.am    1  LIG1       -0.2971
     22 O          -4.9259    0.2857    4.5313 O.2     1  LIG1       -0.2697
     23 C          -0.9477    4.3646    0.2360 C.3     1  LIG1       -0.0554
     24 C          -3.7218    7.2987    5.2474 C.ar    1  LIG1        0.2075
     25 O          -1.8140    8.0222    4.2409 O.3     1  LIG1       -0.4525
     26 O          -5.7621    6.8112    6.2736 O.3     1  LIG1       -0.4913
     27 C          -2.9916   -2.7944    4.1694 C.3     1  LIG1        0.0148
     28 C          -5.4521   -2.4318    4.4474 C.3     1  LIG1        0.0148
     29 C          -1.0647    4.4389   -1.2806 C.3     1  LIG1       -0.0653
     30 O          -4.0503    8.5836    4.9313 O.3     1  LIG1       -0.4489
     31 C          -2.8184    9.0506    4.3513 C.3     1  LIG1        0.2334
     32 C          -6.6385    5.8534    6.8497 C.3     1  LIG1        0.0790
     33 C          -2.7065   -2.9602    2.6740 C.3     1  LIG1       -0.0374
     34 C          -5.8878   -2.6629    5.8959 C.3     1  LIG1       -0.0374
     35 C          -1.4731   -3.8242    2.4223 C.3     1  LIG1       -0.0545
     36 C          -7.2911   -3.2619    5.9698 C.3     1  LIG1       -0.0545
     37 C          -1.1324   -3.8800    0.9408 C.3     1  LIG1       -0.0652
     38 C          -7.7462   -3.4368    7.4102 C.3     1  LIG1       -0.0652
     39 H          -0.0614    3.7803    5.3403 H       1  LIG1        0.0424
     40 H          -0.4359    1.2302    4.1710 H       1  LIG1        0.0858
     41 H          -1.9897    3.4479    7.2135 H       1  LIG1        0.0409
     42 H          -3.1286    1.9243    3.7464 H       1  LIG1        0.2042
     43 H          -1.6520    3.7646    2.9650 H       1  LIG1        0.0325
     44 H          -1.6285    2.1903    2.2091 H       1  LIG1        0.0325
     45 H          -4.0635    2.5053    5.5820 H       1  LIG1        0.0821
     46 H          -3.0318    1.4483    6.5549 H       1  LIG1        0.0821
     47 H          -2.0045   -0.2593    5.4009 H       1  LIG1        0.0913
     48 H          -2.0168   -0.2338    3.6019 H       1  LIG1        0.0913
     49 H          -0.8623    5.5833    4.7796 H       1  LIG1        0.0658
     50 H          -4.5404    4.3965    6.7362 H       1  LIG1        0.0658
     51 H          -0.2574    2.3312    0.2428 H       1  LIG1        0.0270
     52 H           1.0291    3.5197    0.1708 H       1  LIG1        0.0270
     53 H           1.3054    4.2769    3.7699 H       1  LIG1        0.0235
     54 H           0.2672    5.2596    2.7270 H       1  LIG1        0.0235
     55 H           1.8327    4.6879    2.1459 H       1  LIG1        0.0235
     56 H           1.6218    1.8627    3.4035 H       1  LIG1        0.0235
     57 H           2.1971    2.1279    1.7651 H       1  LIG1        0.0235
     58 H           0.8499    1.0177    2.0491 H       1  LIG1        0.0235
     59 H          -0.6520    5.3478    0.6150 H       1  LIG1        0.0263
     60 H          -1.9360    4.1356    0.6479 H       1  LIG1        0.0263
     61 H          -3.2405   -3.7575    4.6295 H       1  LIG1        0.0464
     62 H          -2.0999   -2.4191    4.6803 H       1  LIG1        0.0464
     63 H          -5.4691   -3.3698    3.8808 H       1  LIG1        0.0464
     64 H          -6.1529   -1.7465    3.9565 H       1  LIG1        0.0464
     65 H          -0.1077    4.7157   -1.7344 H       1  LIG1        0.0230
     66 H          -1.8072    5.1898   -1.5677 H       1  LIG1        0.0230
     67 H          -1.3768    3.4760   -1.6982 H       1  LIG1        0.0230
     68 H          -3.0281    9.4448    3.3507 H       1  LIG1        0.1166
     69 H          -2.4218    9.8629    4.9722 H       1  LIG1        0.1166
     70 H          -7.6012    6.3434    7.0247 H       1  LIG1        0.0660
     71 H          -6.2614    5.5055    7.8168 H       1  LIG1        0.0660
     72 H          -6.8105    5.0145    6.1671 H       1  LIG1        0.0660
     73 H          -2.5632   -1.9771    2.2099 H       1  LIG1        0.0280
     74 H          -3.5781   -3.4068    2.1796 H       1  LIG1        0.0280
     75 H          -5.8626   -1.7134    6.4450 H       1  LIG1        0.0280
     76 H          -5.1742   -3.3307    6.3947 H       1  LIG1        0.0280
     77 H          -1.6491   -4.8399    2.7942 H       1  LIG1        0.0263
     78 H          -0.6137   -3.4201    2.9698 H       1  LIG1        0.0263
     79 H          -7.3065   -4.2351    5.4656 H       1  LIG1        0.0263
     80 H          -8.0023   -2.6129    5.4459 H       1  LIG1        0.0263
     81 H          -1.9657   -4.2876    0.3597 H       1  LIG1        0.0230
     82 H          -0.2572   -4.5158    0.7753 H       1  LIG1        0.0230
     83 H          -0.9022   -2.8811    0.5553 H       1  LIG1        0.0230
     84 H          -7.0702   -4.1005    7.9586 H       1  LIG1        0.0230
     85 H          -8.7498   -3.8725    7.4406 H       1  LIG1        0.0230
     86 H          -7.7790   -2.4739    7.9301 H       1  LIG1        0.0230
@<TRIPOS>BOND
     1     1     2    1
     2     1     3    1
     3     1     4    1
     4     2     5    1
     5     2     6    1
     6     3     8    1
     7     3     7    1
     8     4    10   ar
     9     4     9   ar
    10     5     8    1
    11     5    11    1
    12     6    12    1
    13     7    14   ar
    14     7    13   ar
    15    11    15    1
    16    12    18    1
    17    12    17    1
    18    12    16    1
    19    13    19   ar
    20    14    20   ar
    21    15    22    2
    22    15    21   am
    23    16    23    1
    24    19    25    1
    25    19    24   ar
    26    20    24   ar
    27    20    26    1
    28    21    28    1
    29    21    27    1
    30    23    29    1
    31    24    30    1
    32    25    31    1
    33    26    32    1
    34    27    33    1
    35    28    34    1
    36    30    31    1
    37    33    35    1
    38    34    36    1
    39    35    37    1
    40    36    38    1
    41     1    39    1
    42     2    40    1
    43     3    41    1
    44     5    42    1
    45     6    43    1
    46     6    44    1
    47     8    45    1
    48     8    46    1
    49    11    47    1
    50    11    48    1
    51    13    49    1
    52    14    50    1
    53    16    51    1
    54    16    52    1
    55    17    53    1
    56    17    54    1
    57    17    55    1
    58    18    56    1
    59    18    57    1
    60    18    58    1
    61    23    59    1
    62    23    60    1
    63    27    61    1
    64    27    62    1
    65    28    63    1
    66    28    64    1
    67    29    65    1
    68    29    66    1
    69    29    67    1
    70    31    68    1
    71    31    69    1
    72    32    70    1
    73    32    71    1
    74    32    72    1
    75    33    73    1
    76    33    74    1
    77    34    75    1
    78    34    76    1
    79    35    77    1
    80    35    78    1
    81    36    79    1
    82    36    80    1
    83    37    81    1
    84    37    82    1
    85    37    83    1
    86    38    84    1
    87    38    85    1
    88    38    86    1
@<TRIPOS>MOLECULE
01012527H
 86 88 0 0 0
SMALL
GASTEIGER

@<TRIPOS>ATOM
      1 C          -0.9300    3.0849    5.4322 C.3     1  LIG1        0.0531
      2 C          -1.1001    2.0980    4.2832 C.3     1  LIG1       -0.0111
      3 C          -2.2783    3.2771    6.1134 C.3     1  LIG1        0.0375
      4 C           0.0366    2.2755    6.2899 C.2     1  LIG1        0.0509
      5 N          -2.5063    1.4941    4.4938 N.4     1  LIG1        0.2448
      6 C          -1.0869    2.6981    2.8579 C.3     1  LIG1       -0.0039
      7 C          -2.9704    4.5651    5.6724 C.ar    1  LIG1       -0.0313
      8 C          -3.0277    1.9794    5.8379 C.3     1  LIG1       -0.0234
      9 O          -0.4927    1.3571    6.9732 O.co2   1  LIG1       -0.5493
     10 O           1.2493    2.5492    6.1054 O.co2   1  LIG1       -0.5493
     11 C          -2.5156   -0.0286    4.3902 C.3     1  LIG1        0.0465
     12 C           0.2945    3.0377    2.2102 C.3     1  LIG1       -0.0298
     13 C          -2.6854    5.7363    6.4008 C.ar    1  LIG1       -0.0122
     14 C          -3.8774    4.6458    4.5860 C.ar    1  LIG1       -0.0124
     15 C          -3.9496   -0.5781    4.3625 C.2     1  LIG1        0.2608
     16 C           0.0968    3.3053    0.6808 C.3     1  LIG1       -0.0479
     17 C           0.8764    4.3327    2.8140 C.3     1  LIG1       -0.0596
     18 C           1.3200    1.9084    2.4154 C.3     1  LIG1       -0.0596
     19 C          -3.3146    6.9104    6.0445 C.ar    1  LIG1        0.1702
     20 C          -4.4996    5.8546    4.2352 C.ar    1  LIG1        0.1656
     21 N          -4.1416   -1.9523    4.4026 N.am    1  LIG1       -0.2971
     22 O          -4.8934    0.2193    4.3064 O.2     1  LIG1       -0.2697
     23 C          -0.2461    2.0816   -0.1812 C.3     1  LIG1       -0.0554
     24 C          -4.1936    6.9716    4.9912 C.ar    1  LIG1        0.2075
     25 O          -3.1625    8.1079    6.6709 O.3     1  LIG1       -0.4525
     26 O          -5.3793    6.0352    3.2073 O.3     1  LIG1       -0.4913
     27 C          -3.0709   -2.9525    4.2691 C.3     1  LIG1        0.0148
     28 C          -5.5097   -2.4465    4.6034 C.3     1  LIG1        0.0148
     29 C          -0.4096    2.4649   -1.6455 C.3     1  LIG1       -0.0653
     30 O          -4.7018    8.2258    4.8232 O.3     1  LIG1       -0.4489
     31 C          -4.0672    8.9299    5.9069 C.3     1  LIG1        0.2334
     32 C          -5.8843    4.8726    2.5672 C.3     1  LIG1        0.0790
     33 C          -3.2334   -3.8129    3.0129 C.3     1  LIG1       -0.0374
     34 C          -6.3778   -2.3566    3.3445 C.3     1  LIG1       -0.0374
     35 C          -2.0496   -4.7570    2.8109 C.3     1  LIG1       -0.0545
     36 C          -7.7394   -3.0363    3.5070 C.3     1  LIG1       -0.0545
     37 C          -2.2732   -5.6732    1.6172 C.3     1  LIG1       -0.0652
     38 C          -8.6038   -2.4150    4.5935 C.3     1  LIG1       -0.0652
     39 H          -0.4661    4.0330    5.1538 H       1  LIG1        0.0424
     40 H          -0.4114    1.2454    4.3047 H       1  LIG1        0.0858
     41 H          -2.1640    3.3550    7.2038 H       1  LIG1        0.0409
     42 H          -3.1643    1.8335    3.7860 H       1  LIG1        0.2042
     43 H          -1.7248    3.5904    2.8269 H       1  LIG1        0.0325
     44 H          -1.5823    1.9661    2.2094 H       1  LIG1        0.0325
     45 H          -4.1119    2.1052    5.7650 H       1  LIG1        0.0821
     46 H          -2.8219    1.2075    6.5851 H       1  LIG1        0.0821
     47 H          -1.9559   -0.4248    5.2420 H       1  LIG1        0.0913
     48 H          -2.0276   -0.2775    3.4430 H       1  LIG1        0.0913
     49 H          -1.9925    5.7297    7.2387 H       1  LIG1        0.0658
     50 H          -4.1012    3.7594    4.0088 H       1  LIG1        0.0658
     51 H           1.0176    3.7466    0.2751 H       1  LIG1        0.0270
     52 H          -0.6859    4.0647    0.5508 H       1  LIG1        0.0270
     53 H           1.2112    4.1905    3.8440 H       1  LIG1        0.0235
     54 H           0.1406    5.1442    2.7989 H       1  LIG1        0.0235
     55 H           1.7536    4.6722    2.2507 H       1  LIG1        0.0235
     56 H           1.6471    1.8422    3.4577 H       1  LIG1        0.0235
     57 H           2.2183    2.0789    1.8110 H       1  LIG1        0.0235
     58 H           0.9063    0.9330    2.1393 H       1  LIG1        0.0235
     59 H          -1.1724    1.6089    0.1579 H       1  LIG1        0.0263
     60 H           0.5487    1.3313   -0.1117 H       1  LIG1        0.0263
     61 H          -3.0889   -3.5777    5.1690 H       1  LIG1        0.0464
     62 H          -2.0949   -2.4621    4.2405 H       1  LIG1        0.0464
     63 H          -5.9581   -1.8455    5.4035 H       1  LIG1        0.0464
     64 H          -5.4611   -3.4784    4.9695 H       1  LIG1        0.0464
     65 H          -1.2224    3.1862   -1.7738 H       1  LIG1        0.0230
     66 H          -0.6437    1.5786   -2.2438 H       1  LIG1        0.0230
     67 H           0.5107    2.9065   -2.0406 H       1  LIG1        0.0230
     68 H          -3.5093    9.7791    5.4968 H       1  LIG1        0.1166
     69 H          -4.8449    9.3127    6.5787 H       1  LIG1        0.1166
     70 H          -6.6440    5.1900    1.8463 H       1  LIG1        0.0660
     71 H          -6.3657    4.2008    3.2857 H       1  LIG1        0.0660
     72 H          -5.0943    4.3559    2.0125 H       1  LIG1        0.0660
     73 H          -3.3399   -3.1653    2.1335 H       1  LIG1        0.0280
     74 H          -4.1541   -4.4038    3.0861 H       1  LIG1        0.0280
     75 H          -5.8596   -2.8226    2.4993 H       1  LIG1        0.0280
     76 H          -6.5302   -1.3081    3.0632 H       1  LIG1        0.0280
     77 H          -1.8990   -5.3672    3.7085 H       1  LIG1        0.0263
     78 H          -1.1341   -4.1756    2.6534 H       1  LIG1        0.0263
     79 H          -7.5989   -4.1025    3.7195 H       1  LIG1        0.0263
     80 H          -8.2758   -2.9715    2.5528 H       1  LIG1        0.0263
     81 H          -3.1543   -6.3056    1.7692 H       1  LIG1        0.0230
     82 H          -1.4080   -6.3277    1.4725 H       1  LIG1        0.0230
     83 H          -2.4210   -5.0955    0.6990 H       1  LIG1        0.0230
     84 H          -8.1753   -2.5773    5.5871 H       1  LIG1        0.0230
     85 H          -9.6000   -2.8685    4.5863 H       1  LIG1        0.0230
     86 H          -8.7195   -1.3380    4.4375 H       1  LIG1        0.0230
@<TRIPOS>BOND
     1     1     2    1
     2     1     3    1
     3     1     4    1
     4     2     5    1
     5     2     6    1
     6     3     8    1
     7     3     7    1
     8     4    10   ar
     9     4     9   ar
    10     5     8    1
    11     5    11    1
    12     6    12    1
    13     7    14   ar
    14     7    13   ar
    15    11    15    1
    16    12    18    1
    17    12    17    1
    18    12    16    1
    19    13    19   ar
    20    14    20   ar
    21    15    22    2
    22    15    21   am
    23    16    23    1
    24    19    25    1
    25    19    24   ar
    26    20    24   ar
    27    20    26    1
    28    21    28    1
    29    21    27    1
    30    23    29    1
    31    24    30    1
    32    25    31    1
    33    26    32    1
    34    27    33    1
    35    28    34    1
    36    30    31    1
    37    33    35    1
    38    34    36    1
    39    35    37    1
    40    36    38    1
    41     1    39    1
    42     2    40    1
    43     3    41    1
    44     5    42    1
    45     6    43    1
    46     6    44    1
    47     8    45    1
    48     8    46    1
    49    11    47    1
    50    11    48    1
    51    13    49    1
    52    14    50    1
    53    16    51    1
    54    16    52    1
    55    17    53    1
    56    17    54    1
    57    17    55    1
    58    18    56    1
    59    18    57    1
    60    18    58    1
    61    23    59    1
    62    23    60    1
    63    27    61    1
    64    27    62    1
    65    28    63    1
    66    28    64    1
    67    29    65    1
    68    29    66    1
    69    29    67    1
    70    31    68    1
    71    31    69    1
    72    32    70    1
    73    32    71    1
    74    32    72    1
    75    33    73    1
    76    33    74    1
    77    34    75    1
    78    34    76    1
    79    35    77    1
    80    35    78    1
    81    36    79    1
    82    36    80    1
    83    37    81    1
    84    37    82    1
    85    37    83    1
    86    38    84    1
    87    38    85    1
    88    38    86    1
@<TRIPOS>MOLECULE
01012527H
 86 88 0 0 0
SMALL
GASTEIGER

@<TRIPOS>ATOM
      1 C          -1.0282    3.1855    5.4213 C.3     1  LIG1        0.0531
      2 C          -1.1956    2.1472    4.3184 C.3     1  LIG1       -0.0111
      3 C          -2.3463    3.2987    6.1906 C.3     1  LIG1        0.0375
      4 C           0.0280    2.4666    6.2572 C.2     1  LIG1        0.0509
      5 N          -2.6016    1.5981    4.4688 N.4     1  LIG1        0.2448
      6 C          -0.8268    2.5427    2.8657 C.3     1  LIG1       -0.0039
      7 C          -3.0609    4.6092    5.8836 C.ar    1  LIG1       -0.0313
      8 C          -3.0595    1.9844    5.8734 C.3     1  LIG1       -0.0234
      9 O          -0.4173    1.5806    7.0376 O.co2   1  LIG1       -0.5493
     10 O           1.2110    2.7571    5.9485 O.co2   1  LIG1       -0.5493
     11 C          -2.6459    0.0849    4.2548 C.3     1  LIG1        0.0465
     12 C          -1.4978    3.6630    2.0123 C.3     1  LIG1       -0.0298
     13 C          -2.4626    5.7955    6.3518 C.ar    1  LIG1       -0.0122
     14 C          -4.2653    4.7144    5.1557 C.ar    1  LIG1       -0.0124
     15 C          -4.0648   -0.4891    4.2948 C.2     1  LIG1        0.2608
     16 C          -0.8605    3.6569    0.5764 C.3     1  LIG1       -0.0479
     17 C          -3.0021    3.4123    1.8020 C.3     1  LIG1       -0.0596
     18 C          -1.3083    5.0578    2.6227 C.3     1  LIG1       -0.0596
     19 C          -3.0509    7.0067    6.0506 C.ar    1  LIG1        0.1702
     20 C          -4.8343    5.9622    4.8334 C.ar    1  LIG1        0.1656
     21 N          -4.2164   -1.8727    4.3043 N.am    1  LIG1       -0.2971
     22 O          -5.0279    0.2852    4.3232 O.2     1  LIG1       -0.2697
     23 C           0.6325    4.0000    0.4917 C.3     1  LIG1       -0.0554
     24 C          -4.2036    7.0993    5.3046 C.ar    1  LIG1        0.2075
     25 O          -2.5647    8.2191    6.4313 O.3     1  LIG1       -0.4525
     26 O          -5.9639    5.8840    4.0689 O.3     1  LIG1       -0.4913
     27 C          -3.1179   -2.8432    4.1560 C.3     1  LIG1        0.0148
     28 C          -5.5610   -2.4079    4.5496 C.3     1  LIG1        0.0148
     29 C           1.1009    4.0607   -0.9559 C.3     1  LIG1       -0.0653
     30 O          -4.5776    8.3985    5.1325 O.3     1  LIG1       -0.4489
     31 C          -3.5445    9.0971    5.8534 C.3     1  LIG1        0.2334
     32 C          -6.4292    7.0963    3.4868 C.3     1  LIG1        0.0790
     33 C          -3.3018   -3.7700    2.9507 C.3     1  LIG1       -0.0374
     34 C          -6.4614   -2.3470    3.3127 C.3     1  LIG1       -0.0374
     35 C          -2.0962   -4.6890    2.7546 C.3     1  LIG1       -0.0545
     36 C          -7.8047   -3.0513    3.5135 C.3     1  LIG1       -0.0545
     37 C          -2.3226   -5.6627    1.6079 C.3     1  LIG1       -0.0652
     38 C          -8.6531   -2.4384    4.6172 C.3     1  LIG1       -0.0652
     39 H          -0.6136    4.1369    5.0799 H       1  LIG1        0.0424
     40 H          -0.5508    1.2730    4.4951 H       1  LIG1        0.0858
     41 H          -2.1865    3.3242    7.2779 H       1  LIG1        0.0409
     42 H          -3.2653    2.0254    3.8212 H       1  LIG1        0.2042
     43 H          -0.8882    1.6187    2.2720 H       1  LIG1        0.0325
     44 H           0.2460    2.7738    2.9116 H       1  LIG1        0.0325
     45 H          -4.1499    2.0464    5.8832 H       1  LIG1        0.0821
     46 H          -2.7562    1.1814    6.5524 H       1  LIG1        0.0821
     47 H          -2.0293   -0.3680    5.0379 H       1  LIG1        0.0913
     48 H          -2.2235   -0.1026    3.2631 H       1  LIG1        0.0913
     49 H          -1.5401    5.7737    6.9280 H       1  LIG1        0.0658
     50 H          -4.7831    3.8319    4.7897 H       1  LIG1        0.0658
     51 H          -1.4059    4.3727   -0.0546 H       1  LIG1        0.0270
     52 H          -1.0204    2.6712    0.1184 H       1  LIG1        0.0270
     53 H          -3.5798    3.6045    2.7054 H       1  LIG1        0.0235
     54 H          -3.1928    2.3834    1.4775 H       1  LIG1        0.0235
     55 H          -3.4129    4.0801    1.0353 H       1  LIG1        0.0235
     56 H          -1.9406    5.2014    3.4955 H       1  LIG1        0.0235
     57 H          -1.5811    5.8433    1.9082 H       1  LIG1        0.0235
     58 H          -0.2725    5.2313    2.9310 H       1  LIG1        0.0235
     59 H           1.2307    3.2502    1.0184 H       1  LIG1        0.0263
     60 H           0.8332    4.9700    0.9572 H       1  LIG1        0.0263
     61 H          -3.0695   -3.4258    5.0836 H       1  LIG1        0.0464
     62 H          -2.1619   -2.3245    4.0555 H       1  LIG1        0.0464
     63 H          -6.0056   -1.8207    5.3616 H       1  LIG1        0.0464
     64 H          -5.4713   -3.4373    4.9157 H       1  LIG1        0.0464
     65 H           0.9549    3.0987   -1.4569 H       1  LIG1        0.0230
     66 H           2.1660    4.3093   -0.9986 H       1  LIG1        0.0230
     67 H           0.5524    4.8268   -1.5136 H       1  LIG1        0.0230
     68 H          -3.0397    9.7846    5.1650 H       1  LIG1        0.1166
     69 H          -4.0098    9.6828    6.6546 H       1  LIG1        0.1166
     70 H          -7.2402    6.8424    2.7971 H       1  LIG1        0.0660
     71 H          -5.6450    7.5871    2.9001 H       1  LIG1        0.0660
     72 H          -6.8438    7.7643    4.2479 H       1  LIG1        0.0660
     73 H          -3.4565   -3.1697    2.0457 H       1  LIG1        0.0280
     74 H          -4.2009   -4.3827    3.0847 H       1  LIG1        0.0280
     75 H          -5.9539   -2.8116    2.4598 H       1  LIG1        0.0280
     76 H          -6.6385   -1.3038    3.0261 H       1  LIG1        0.0280
     77 H          -1.9032   -5.2552    3.6730 H       1  LIG1        0.0263
     78 H          -1.2022   -4.0897    2.5473 H       1  LIG1        0.0263
     79 H          -7.6389   -4.1132    3.7296 H       1  LIG1        0.0263
     80 H          -8.3656   -3.0033    2.5725 H       1  LIG1        0.0263
     81 H          -3.1806   -6.3122    1.8100 H       1  LIG1        0.0230
     82 H          -1.4424   -6.2982    1.4694 H       1  LIG1        0.0230
     83 H          -2.5091   -5.1300    0.6700 H       1  LIG1        0.0230
     84 H          -8.2011   -2.5940    5.6014 H       1  LIG1        0.0230
     85 H          -9.6437   -2.9038    4.6322 H       1  LIG1        0.0230
     86 H          -8.7848   -1.3630    4.4621 H       1  LIG1        0.0230
@<TRIPOS>BOND
     1     1     2    1
     2     1     3    1
     3     1     4    1
     4     2     5    1
     5     2     6    1
     6     3     8    1
     7     3     7    1
     8     4    10   ar
     9     4     9   ar
    10     5     8    1
    11     5    11    1
    12     6    12    1
    13     7    14   ar
    14     7    13   ar
    15    11    15    1
    16    12    18    1
    17    12    17    1
    18    12    16    1
    19    13    19   ar
    20    14    20   ar
    21    15    22    2
    22    15    21   am
    23    16    23    1
    24    19    25    1
    25    19    24   ar
    26    20    24   ar
    27    20    26    1
    28    21    28    1
    29    21    27    1
    30    23    29    1
    31    24    30    1
    32    25    31    1
    33    26    32    1
    34    27    33    1
    35    28    34    1
    36    30    31    1
    37    33    35    1
    38    34    36    1
    39    35    37    1
    40    36    38    1
    41     1    39    1
    42     2    40    1
    43     3    41    1
    44     5    42    1
    45     6    43    1
    46     6    44    1
    47     8    45    1
    48     8    46    1
    49    11    47    1
    50    11    48    1
    51    13    49    1
    52    14    50    1
    53    16    51    1
    54    16    52    1
    55    17    53    1
    56    17    54    1
    57    17    55    1
    58    18    56    1
    59    18    57    1
    60    18    58    1
    61    23    59    1
    62    23    60    1
    63    27    61    1
    64    27    62    1
    65    28    63    1
    66    28    64    1
    67    29    65    1
    68    29    66    1
    69    29    67    1
    70    31    68    1
    71    31    69    1
    72    32    70    1
    73    32    71    1
    74    32    72    1
    75    33    73    1
    76    33    74    1
    77    34    75    1
    78    34    76    1
    79    35    77    1
    80    35    78    1
    81    36    79    1
    82    36    80    1
    83    37    81    1
    84    37    82    1
    85    37    83    1
    86    38    84    1
    87    38    85    1
    88    38    86    1
@<TRIPOS>MOLECULE
01012527H
 86 88 0 0 0
SMALL
GASTEIGER

@<TRIPOS>ATOM
      1 C          -0.8061    3.0708    5.5202 C.3     1  LIG1        0.0531
      2 C          -1.0267    2.1552    4.3238 C.3     1  LIG1       -0.0111
      3 C          -2.1642    3.4443    6.0972 C.3     1  LIG1        0.0375
      4 C          -0.0195    2.1128    6.4099 C.2     1  LIG1        0.0509
      5 N          -2.4741    1.6272    4.5082 N.4     1  LIG1        0.2448
      6 C          -0.9695    2.7904    2.9155 C.3     1  LIG1       -0.0039
      7 C          -2.6245    4.8108    5.6006 C.ar    1  LIG1       -0.0313
      8 C          -3.0573    2.2543    5.7695 C.3     1  LIG1       -0.0234
      9 O           1.2157    2.0993    6.1857 O.co2   1  LIG1       -0.5493
     10 O          -0.7173    1.3713    7.1528 O.co2   1  LIG1       -0.5493
     11 C          -2.4993    0.0956    4.5561 C.3     1  LIG1        0.0465
     12 C           0.4198    3.1241    2.2731 C.3     1  LIG1       -0.0298
     13 C          -3.3635    5.0058    4.4260 C.ar    1  LIG1       -0.0122
     14 C          -2.2333    5.9498    6.3580 C.ar    1  LIG1       -0.0124
     15 C          -3.9197   -0.4863    4.6227 C.2     1  LIG1        0.2608
     16 C           0.1339    3.4114    0.7601 C.3     1  LIG1       -0.0479
     17 C           1.0519    4.3600    2.9322 C.3     1  LIG1       -0.0596
     18 C           1.3897    1.9376    2.4048 C.3     1  LIG1       -0.0596
     19 C          -3.6342    6.3001    4.0295 C.ar    1  LIG1        0.1702
     20 C          -2.5641    7.2518    5.9616 C.ar    1  LIG1        0.1656
     21 N          -4.0927   -1.8462    4.3859 N.am    1  LIG1       -0.2971
     22 O          -4.8737    0.2617    4.8614 O.2     1  LIG1       -0.2697
     23 C           1.3279    3.8255   -0.1087 C.3     1  LIG1       -0.0554
     24 C          -3.2456    7.3924    4.7683 C.ar    1  LIG1        0.2075
     25 O          -4.2896    6.6462    2.8873 O.3     1  LIG1       -0.4525
     26 O          -2.2455    8.3951    6.6345 O.3     1  LIG1       -0.4913
     27 C          -3.0177   -2.7758    4.0121 C.3     1  LIG1        0.0148
     28 C          -5.4340   -2.4178    4.5487 C.3     1  LIG1        0.0148
     29 C           0.9220    3.9564   -1.5711 C.3     1  LIG1       -0.0653
     30 O          -3.6205    8.5641    4.1817 O.3     1  LIG1       -0.4489
     31 C          -4.2294    8.0858    2.9691 C.3     1  LIG1        0.2334
     32 C          -1.9070    8.2450    8.0078 C.3     1  LIG1        0.0790
     33 C          -2.2773   -3.3293    5.2311 C.3     1  LIG1       -0.0374
     34 C          -6.2435   -2.4537    3.2461 C.3     1  LIG1       -0.0374
     35 C          -1.0735   -4.1950    4.8527 C.3     1  LIG1       -0.0545
     36 C          -6.6822   -1.0670    2.7678 C.3     1  LIG1       -0.0545
     37 C          -1.4603   -5.5193    4.2125 C.3     1  LIG1       -0.0652
     38 C          -7.6154   -1.1487    1.5703 C.3     1  LIG1       -0.0652
     39 H          -0.1881    3.9460    5.3177 H       1  LIG1        0.0424
     40 H          -0.3885    1.2643    4.3101 H       1  LIG1        0.0858
     41 H          -2.1235    3.5193    7.1927 H       1  LIG1        0.0409
     42 H          -3.0796    1.9141    3.7341 H       1  LIG1        0.2042
     43 H          -1.5848    3.6948    2.8891 H       1  LIG1        0.0325
     44 H          -1.4669    2.0829    2.2356 H       1  LIG1        0.0325
     45 H          -4.0948    2.5313    5.5613 H       1  LIG1        0.0821
     46 H          -3.0491    1.5007    6.5634 H       1  LIG1        0.0821
     47 H          -1.9196   -0.2252    5.4245 H       1  LIG1        0.0913
     48 H          -2.0192   -0.2202    3.6274 H       1  LIG1        0.0913
     49 H          -3.7059    4.1907    3.8020 H       1  LIG1        0.0658
     50 H          -1.6451    5.7885    7.2594 H       1  LIG1        0.0658
     51 H          -0.6292    4.1985    0.6874 H       1  LIG1        0.0270
     52 H          -0.3138    2.5122    0.3136 H       1  LIG1        0.0270
     53 H           1.3642    4.1541    3.9588 H       1  LIG1        0.0235
     54 H           0.3543    5.2044    2.9446 H       1  LIG1        0.0235
     55 H           1.9577    4.6825    2.4096 H       1  LIG1        0.0235
     56 H           1.6147    1.7142    3.4519 H       1  LIG1        0.0235
     57 H           2.3520    2.1446    1.9260 H       1  LIG1        0.0235
     58 H           0.9729    1.0336    1.9481 H       1  LIG1        0.0235
     59 H           2.1347    3.0901   -0.0406 H       1  LIG1        0.0263
     60 H           1.7271    4.7886    0.2248 H       1  LIG1        0.0263
     61 H          -2.3147   -2.2618    3.3510 H       1  LIG1        0.0464
     62 H          -3.4591   -3.5870    3.4228 H       1  LIG1        0.0464
     63 H          -5.9836   -1.8532    5.3110 H       1  LIG1        0.0464
     64 H          -5.3214   -3.4364    4.9383 H       1  LIG1        0.0464
     65 H           0.5626    3.0001   -1.9648 H       1  LIG1        0.0230
     66 H           1.7790    4.2702   -2.1753 H       1  LIG1        0.0230
     67 H           0.1281    4.6997   -1.6944 H       1  LIG1        0.0230
     68 H          -5.2474    8.4838    2.9047 H       1  LIG1        0.1166
     69 H          -3.6517    8.4610    2.1148 H       1  LIG1        0.1166
     70 H          -1.8658    9.2434    8.4537 H       1  LIG1        0.0660
     71 H          -0.9186    7.7882    8.1188 H       1  LIG1        0.0660
     72 H          -2.6694    7.6718    8.5484 H       1  LIG1        0.0660
     73 H          -2.9686   -3.9036    5.8602 H       1  LIG1        0.0280
     74 H          -1.9196   -2.5000    5.8512 H       1  LIG1        0.0280
     75 H          -7.1373   -3.0651    3.4204 H       1  LIG1        0.0280
     76 H          -5.6663   -2.9481    2.4563 H       1  LIG1        0.0280
     77 H          -0.4941   -4.4044    5.7593 H       1  LIG1        0.0263
     78 H          -0.4118   -3.6412    4.1756 H       1  LIG1        0.0263
     79 H          -5.8077   -0.4722    2.4839 H       1  LIG1        0.0263
     80 H          -7.1956   -0.5377    3.5780 H       1  LIG1        0.0263
     81 H          -2.1145   -6.0967    4.8735 H       1  LIG1        0.0230
     82 H          -0.5645   -6.1180    4.0176 H       1  LIG1        0.0230
     83 H          -1.9749   -5.3719    3.2587 H       1  LIG1        0.0230
     84 H          -7.1263   -1.6421    0.7245 H       1  LIG1        0.0230
     85 H          -7.9099   -0.1433    1.2538 H       1  LIG1        0.0230
     86 H          -8.5245   -1.7056    1.8180 H       1  LIG1        0.0230
@<TRIPOS>BOND
     1     1     2    1
     2     1     3    1
     3     1     4    1
     4     2     5    1
     5     2     6    1
     6     3     8    1
     7     3     7    1
     8     4    10   ar
     9     4     9   ar
    10     5     8    1
    11     5    11    1
    12     6    12    1
    13     7    14   ar
    14     7    13   ar
    15    11    15    1
    16    12    18    1
    17    12    17    1
    18    12    16    1
    19    13    19   ar
    20    14    20   ar
    21    15    22    2
    22    15    21   am
    23    16    23    1
    24    19    25    1
    25    19    24   ar
    26    20    24   ar
    27    20    26    1
    28    21    28    1
    29    21    27    1
    30    23    29    1
    31    24    30    1
    32    25    31    1
    33    26    32    1
    34    27    33    1
    35    28    34    1
    36    30    31    1
    37    33    35    1
    38    34    36    1
    39    35    37    1
    40    36    38    1
    41     1    39    1
    42     2    40    1
    43     3    41    1
    44     5    42    1
    45     6    43    1
    46     6    44    1
    47     8    45    1
    48     8    46    1
    49    11    47    1
    50    11    48    1
    51    13    49    1
    52    14    50    1
    53    16    51    1
    54    16    52    1
    55    17    53    1
    56    17    54    1
    57    17    55    1
    58    18    56    1
    59    18    57    1
    60    18    58    1
    61    23    59    1
    62    23    60    1
    63    27    61    1
    64    27    62    1
    65    28    63    1
    66    28    64    1
    67    29    65    1
    68    29    66    1
    69    29    67    1
    70    31    68    1
    71    31    69    1
    72    32    70    1
    73    32    71    1
    74    32    72    1
    75    33    73    1
    76    33    74    1
    77    34    75    1
    78    34    76    1
    79    35    77    1
    80    35    78    1
    81    36    79    1
    82    36    80    1
    83    37    81    1
    84    37    82    1
    85    37    83    1
    86    38    84    1
    87    38    85    1
    88    38    86    1
@<TRIPOS>MOLECULE
01012527H
 86 88 0 0 0
SMALL
GASTEIGER

@<TRIPOS>ATOM
      1 C          -0.9328    3.1499    5.4647 C.3     1  LIG1        0.0531
      2 C          -1.1176    2.1748    4.3087 C.3     1  LIG1       -0.0111
      3 C          -2.2798    3.3489    6.1479 C.3     1  LIG1        0.0375
      4 C           0.0322    2.3260    6.3099 C.2     1  LIG1        0.0509
      5 N          -2.5170    1.5599    4.5365 N.4     1  LIG1        0.2448
      6 C          -1.1337    2.7908    2.8922 C.3     1  LIG1       -0.0039
      7 C          -2.9710    4.6353    5.6976 C.ar    1  LIG1       -0.0313
      8 C          -3.0314    2.0494    5.8819 C.3     1  LIG1       -0.0234
      9 O          -0.5019    1.4227    7.0092 O.co2   1  LIG1       -0.5493
     10 O           1.2439    2.5730    6.0956 O.co2   1  LIG1       -0.5493
     11 C          -2.4955    0.0379    4.4419 C.3     1  LIG1        0.0465
     12 C           0.2307    3.1494    2.2246 C.3     1  LIG1       -0.0298
     13 C          -2.6741    5.8141    6.4084 C.ar    1  LIG1       -0.0122
     14 C          -3.8889    4.7060    4.6193 C.ar    1  LIG1       -0.0124
     15 C          -3.9098   -0.5593    4.4628 C.2     1  LIG1        0.2608
     16 C           0.0231    3.3295    0.6859 C.3     1  LIG1       -0.0479
     17 C           0.8273    4.4395    2.8127 C.3     1  LIG1       -0.0596
     18 C           1.2606    2.0137    2.3999 C.3     1  LIG1       -0.0596
     19 C          -3.3028    6.9856    6.0427 C.ar    1  LIG1        0.1702
     20 C          -4.5070    5.9126    4.2565 C.ar    1  LIG1        0.1656
     21 N          -4.0421   -1.9406    4.4149 N.am    1  LIG1       -0.2971
     22 O          -4.8869    0.1953    4.5116 O.2     1  LIG1       -0.2697
     23 C          -0.9989    4.3914    0.2674 C.3     1  LIG1       -0.0554
     24 C          -4.1909    7.0369    4.9964 C.ar    1  LIG1        0.2075
     25 O          -3.1404    8.1905    6.6526 O.3     1  LIG1       -0.4525
     26 O          -5.3947    6.0850    3.2342 O.3     1  LIG1       -0.4913
     27 C          -2.9562   -2.8667    4.0768 C.3     1  LIG1        0.0148
     28 C          -5.3747   -2.5148    4.6221 C.3     1  LIG1        0.0148
     29 C          -1.0890    4.4922   -1.2493 C.3     1  LIG1       -0.0653
     30 O          -4.6957    8.2913    4.8169 O.3     1  LIG1       -0.4489
     31 C          -4.0518    9.0055    5.8891 C.3     1  LIG1        0.2334
     32 C          -5.8684    4.9209    2.5734 C.3     1  LIG1        0.0790
     33 C          -2.2408   -3.4046    5.3157 C.3     1  LIG1       -0.0374
     34 C          -6.2142   -2.4971    3.3428 C.3     1  LIG1       -0.0374
     35 C          -1.0220   -4.2618    4.9661 C.3     1  LIG1       -0.0545
     36 C          -7.5847   -3.1565    3.5087 C.3     1  LIG1       -0.0545
     37 C          -1.3830   -5.5796    4.2970 C.3     1  LIG1       -0.0652
     38 C          -8.4783   -2.4585    4.5231 C.3     1  LIG1       -0.0652
     39 H          -0.4586    4.0947    5.1896 H       1  LIG1        0.0424
     40 H          -0.4233    1.3270    4.3098 H       1  LIG1        0.0858
     41 H          -2.1624    3.4345    7.2376 H       1  LIG1        0.0409
     42 H          -3.1843    1.8852    3.8319 H       1  LIG1        0.2042
     43 H          -1.7777    3.6778    2.8955 H       1  LIG1        0.0325
     44 H          -1.6284    2.0668    2.2285 H       1  LIG1        0.0325
     45 H          -4.1153    2.1778    5.8128 H       1  LIG1        0.0821
     46 H          -2.8243    1.2794    6.6304 H       1  LIG1        0.0821
     47 H          -1.8959   -0.3417    5.2725 H       1  LIG1        0.0913
     48 H          -2.0280   -0.1927    3.4805 H       1  LIG1        0.0913
     49 H          -1.9736    5.8151    7.2396 H       1  LIG1        0.0658
     50 H          -4.1243    3.8122    4.0584 H       1  LIG1        0.0658
     51 H          -0.2825    2.3661    0.2547 H       1  LIG1        0.0270
     52 H           0.9886    3.5727    0.2210 H       1  LIG1        0.0270
     53 H           1.2300    4.2785    3.8165 H       1  LIG1        0.0235
     54 H           0.0817    5.2390    2.8743 H       1  LIG1        0.0235
     55 H           1.6578    4.8052    2.1978 H       1  LIG1        0.0235
     56 H           1.5671    1.8953    3.4433 H       1  LIG1        0.0235
     57 H           2.1719    2.2156    1.8248 H       1  LIG1        0.0235
     58 H           0.8553    1.0562    2.0550 H       1  LIG1        0.0235
     59 H          -0.7224    5.3709    0.6698 H       1  LIG1        0.0263
     60 H          -1.9916    4.1424    0.6558 H       1  LIG1        0.0263
     61 H          -2.2391   -2.3545    3.4285 H       1  LIG1        0.0464
     62 H          -3.3839   -3.6830    3.4842 H       1  LIG1        0.0464
     63 H          -5.8717   -1.9317    5.4056 H       1  LIG1        0.0464
     64 H          -5.2634   -3.5368    5.0024 H       1  LIG1        0.0464
     65 H          -0.1259    4.7838   -1.6812 H       1  LIG1        0.0230
     66 H          -1.8316    5.2433   -1.5364 H       1  LIG1        0.0230
     67 H          -1.3869    3.5349   -1.6896 H       1  LIG1        0.0230
     68 H          -3.4979    9.8511    5.4663 H       1  LIG1        0.1166
     69 H          -4.8240    9.3943    6.5636 H       1  LIG1        0.1166
     70 H          -6.6213    5.2324    1.8427 H       1  LIG1        0.0660
     71 H          -6.3506    4.2339    3.2772 H       1  LIG1        0.0660
     72 H          -5.0603    4.4226    2.0270 H       1  LIG1        0.0660
     73 H          -2.9397   -3.9819    5.9323 H       1  LIG1        0.0280
     74 H          -1.9049   -2.5669    5.9375 H       1  LIG1        0.0280
     75 H          -5.6706   -3.0183    2.5453 H       1  LIG1        0.0280
     76 H          -6.3485   -1.4655    2.9956 H       1  LIG1        0.0280
     77 H          -0.4704   -4.4794    5.8884 H       1  LIG1        0.0263
     78 H          -0.3416   -3.6977    4.3167 H       1  LIG1        0.0263
     79 H          -7.4600   -4.2068    3.7960 H       1  LIG1        0.0263
     80 H          -8.0909   -3.1511    2.5364 H       1  LIG1        0.0263
     81 H          -2.0603   -6.1648    4.9264 H       1  LIG1        0.0230
     82 H          -0.4798   -6.1745    4.1275 H       1  LIG1        0.0230
     83 H          -1.8621   -5.4215    3.3266 H       1  LIG1        0.0230
     84 H          -8.0891   -2.5659    5.5404 H       1  LIG1        0.0230
     85 H          -9.4808   -2.8985    4.5066 H       1  LIG1        0.0230
     86 H          -8.5725   -1.3910    4.2987 H       1  LIG1        0.0230
@<TRIPOS>BOND
     1     1     2    1
     2     1     3    1
     3     1     4    1
     4     2     5    1
     5     2     6    1
     6     3     8    1
     7     3     7    1
     8     4    10   ar
     9     4     9   ar
    10     5     8    1
    11     5    11    1
    12     6    12    1
    13     7    14   ar
    14     7    13   ar
    15    11    15    1
    16    12    18    1
    17    12    17    1
    18    12    16    1
    19    13    19   ar
    20    14    20   ar
    21    15    22    2
    22    15    21   am
    23    16    23    1
    24    19    25    1
    25    19    24   ar
    26    20    24   ar
    27    20    26    1
    28    21    28    1
    29    21    27    1
    30    23    29    1
    31    24    30    1
    32    25    31    1
    33    26    32    1
    34    27    33    1
    35    28    34    1
    36    30    31    1
    37    33    35    1
    38    34    36    1
    39    35    37    1
    40    36    38    1
    41     1    39    1
    42     2    40    1
    43     3    41    1
    44     5    42    1
    45     6    43    1
    46     6    44    1
    47     8    45    1
    48     8    46    1
    49    11    47    1
    50    11    48    1
    51    13    49    1
    52    14    50    1
    53    16    51    1
    54    16    52    1
    55    17    53    1
    56    17    54    1
    57    17    55    1
    58    18    56    1
    59    18    57    1
    60    18    58    1
    61    23    59    1
    62    23    60    1
    63    27    61    1
    64    27    62    1
    65    28    63    1
    66    28    64    1
    67    29    65    1
    68    29    66    1
    69    29    67    1
    70    31    68    1
    71    31    69    1
    72    32    70    1
    73    32    71    1
    74    32    72    1
    75    33    73    1
    76    33    74    1
    77    34    75    1
    78    34    76    1
    79    35    77    1
    80    35    78    1
    81    36    79    1
    82    36    80    1
    83    37    81    1
    84    37    82    1
    85    37    83    1
    86    38    84    1
    87    38    85    1
    88    38    86    1
@<TRIPOS>MOLECULE
01012527H
 86 88 0 0 0
SMALL
GASTEIGER

@<TRIPOS>ATOM
      1 C          -0.9046    3.0091    5.4534 C.3     1  LIG1        0.0531
      2 C          -1.0245    2.0710    4.2577 C.3     1  LIG1       -0.0111
      3 C          -2.3080    3.4003    5.8978 C.3     1  LIG1        0.0375
      4 C          -0.2030    2.0931    6.4478 C.2     1  LIG1        0.0509
      5 N          -2.4443    1.4495    4.4223 N.4     1  LIG1        0.2448
      6 C          -0.9726    2.7190    2.8520 C.3     1  LIG1       -0.0039
      7 C          -2.6943    4.7972    5.4376 C.ar    1  LIG1       -0.0313
      8 C          -3.2011    2.2423    5.4631 C.3     1  LIG1       -0.0234
      9 O           1.0345    1.9693    6.2606 O.co2   1  LIG1       -0.5493
     10 O          -0.9647    1.4784    7.2459 O.co2   1  LIG1       -0.5493
     11 C          -2.3661   -0.0376    4.8149 C.3     1  LIG1        0.0465
     12 C           0.4102    3.1348    2.2423 C.3     1  LIG1       -0.0298
     13 C          -3.3454    5.0686    4.2287 C.ar    1  LIG1       -0.0122
     14 C          -2.3346    5.8858    6.2826 C.ar    1  LIG1       -0.0124
     15 C          -1.9337   -0.9302    3.6473 C.2     1  LIG1        0.2608
     16 C           0.1572    3.3689    0.7131 C.3     1  LIG1       -0.0479
     17 C           0.9312    4.4280    2.8886 C.3     1  LIG1       -0.0596
     18 C           1.4563    2.0235    2.4345 C.3     1  LIG1       -0.0596
     19 C          -3.5649    6.3887    3.8887 C.ar    1  LIG1        0.1702
     20 C          -2.6101    7.2142    5.9382 C.ar    1  LIG1        0.1656
     21 N          -1.5307   -2.2373    3.9195 N.am    1  LIG1       -0.2971
     22 O          -1.9853   -0.4669    2.5025 O.2     1  LIG1       -0.2697
     23 C           1.3524    3.8352   -0.1279 C.3     1  LIG1       -0.0554
     24 C          -3.2066    7.4310    4.7118 C.ar    1  LIG1        0.2075
     25 O          -4.1371    6.8112    2.7279 O.3     1  LIG1       -0.4525
     26 O          -2.3140    8.3120    6.6908 O.3     1  LIG1       -0.4913
     27 C          -1.3581   -2.7680    5.2872 C.3     1  LIG1        0.0148
     28 C          -0.8937   -2.9817    2.8256 C.3     1  LIG1        0.0148
     29 C           0.9804    3.9425   -1.6011 C.3     1  LIG1       -0.0653
     30 O          -3.5191    8.6408    4.1661 O.3     1  LIG1       -0.4489
     31 C          -4.0298    8.2415    2.8811 C.3     1  LIG1        0.2334
     32 C          -2.0536    8.0830    8.0715 C.3     1  LIG1        0.0790
     33 C          -1.9767   -4.1543    5.4906 C.3     1  LIG1       -0.0374
     34 C          -1.8448   -3.4374    1.7111 C.3     1  LIG1       -0.0374
     35 C          -1.9928   -4.6035    6.9537 C.3     1  LIG1       -0.0545
     36 C          -2.9534   -4.3687    2.1954 C.3     1  LIG1       -0.0545
     37 C          -0.6061   -4.7595    7.5565 C.3     1  LIG1       -0.0652
     38 C          -3.8155   -4.8613    1.0435 C.3     1  LIG1       -0.0652
     39 H          -0.2663    3.8775    5.2859 H       1  LIG1        0.0424
     40 H          -0.3283    1.2260    4.2635 H       1  LIG1        0.0858
     41 H          -2.3743    3.4420    6.9949 H       1  LIG1        0.0409
     42 H          -2.9203    1.4650    3.5126 H       1  LIG1        0.2042
     43 H          -1.6384    3.5847    2.8122 H       1  LIG1        0.0325
     44 H          -1.4112    1.9952    2.1521 H       1  LIG1        0.0325
     45 H          -4.1567    2.5384    5.0201 H       1  LIG1        0.0821
     46 H          -3.4146    1.5797    6.3103 H       1  LIG1        0.0821
     47 H          -3.3767   -0.3403    5.1101 H       1  LIG1        0.0913
     48 H          -1.6712   -0.1157    5.6469 H       1  LIG1        0.0913
     49 H          -3.6543    4.2936    3.5380 H       1  LIG1        0.0658
     50 H          -1.8143    5.6617    7.2127 H       1  LIG1        0.0658
     51 H          -0.6502    4.1049    0.5980 H       1  LIG1        0.0270
     52 H          -0.2188    2.4339    0.2745 H       1  LIG1        0.0270
     53 H           1.2212    4.2712    3.9303 H       1  LIG1        0.0235
     54 H           0.1763    5.2215    2.8550 H       1  LIG1        0.0235
     55 H           1.8299    4.8012    2.3887 H       1  LIG1        0.0235
     56 H           1.6642    1.8450    3.4936 H       1  LIG1        0.0235
     57 H           2.4158    2.2851    1.9772 H       1  LIG1        0.0235
     58 H           1.1172    1.0807    1.9916 H       1  LIG1        0.0235
     59 H           2.1895    3.1366   -0.0352 H       1  LIG1        0.0263
     60 H           1.6997    4.8164    0.2097 H       1  LIG1        0.0263
     61 H          -1.8167   -2.0981    6.0152 H       1  LIG1        0.0464
     62 H          -0.2813   -2.7800    5.4906 H       1  LIG1        0.0464
     63 H          -0.3606   -3.8476    3.2326 H       1  LIG1        0.0464
     64 H          -0.1280   -2.3283    2.3870 H       1  LIG1        0.0464
     65 H           0.6722    2.9707   -2.0001 H       1  LIG1        0.0230
     66 H           1.8393    4.2904   -2.1837 H       1  LIG1        0.0230
     67 H           0.1598    4.6518   -1.7492 H       1  LIG1        0.0230
     68 H          -5.0220    8.6841    2.7442 H       1  LIG1        0.1166
     69 H          -3.3618    8.6276    2.1027 H       1  LIG1        0.1166
     70 H          -1.9903    9.0567    8.5657 H       1  LIG1        0.0660
     71 H          -1.0949    7.5757    8.2115 H       1  LIG1        0.0660
     72 H          -2.8690    7.5226    8.5426 H       1  LIG1        0.0660
     73 H          -1.4474   -4.9030    4.8920 H       1  LIG1        0.0280
     74 H          -3.0135   -4.1385    5.1362 H       1  LIG1        0.0280
     75 H          -1.2477   -3.9553    0.9489 H       1  LIG1        0.0280
     76 H          -2.2949   -2.5717    1.2131 H       1  LIG1        0.0280
     77 H          -2.5126   -5.5670    7.0146 H       1  LIG1        0.0263
     78 H          -2.5737   -3.8936    7.5549 H       1  LIG1        0.0263
     79 H          -3.5964   -3.8443    2.9097 H       1  LIG1        0.0263
     80 H          -2.5186   -5.2341    2.7079 H       1  LIG1        0.0263
     81 H           0.0115   -5.4318    6.9528 H       1  LIG1        0.0230
     82 H          -0.6807   -5.1800    8.5641 H       1  LIG1        0.0230
     83 H          -0.0947   -3.7959    7.6363 H       1  LIG1        0.0230
     84 H          -4.2901   -4.0230    0.5234 H       1  LIG1        0.0230
     85 H          -4.6047   -5.5198    1.4181 H       1  LIG1        0.0230
     86 H          -3.2183   -5.4236    0.3189 H       1  LIG1        0.0230
@<TRIPOS>BOND
     1     1     2    1
     2     1     3    1
     3     1     4    1
     4     2     5    1
     5     2     6    1
     6     3     8    1
     7     3     7    1
     8     4    10   ar
     9     4     9   ar
    10     5     8    1
    11     5    11    1
    12     6    12    1
    13     7    14   ar
    14     7    13   ar
    15    11    15    1
    16    12    18    1
    17    12    17    1
    18    12    16    1
    19    13    19   ar
    20    14    20   ar
    21    15    22    2
    22    15    21   am
    23    16    23    1
    24    19    25    1
    25    19    24   ar
    26    20    24   ar
    27    20    26    1
    28    21    28    1
    29    21    27    1
    30    23    29    1
    31    24    30    1
    32    25    31    1
    33    26    32    1
    34    27    33    1
    35    28    34    1
    36    30    31    1
    37    33    35    1
    38    34    36    1
    39    35    37    1
    40    36    38    1
    41     1    39    1
    42     2    40    1
    43     3    41    1
    44     5    42    1
    45     6    43    1
    46     6    44    1
    47     8    45    1
    48     8    46    1
    49    11    47    1
    50    11    48    1
    51    13    49    1
    52    14    50    1
    53    16    51    1
    54    16    52    1
    55    17    53    1
    56    17    54    1
    57    17    55    1
    58    18    56    1
    59    18    57    1
    60    18    58    1
    61    23    59    1
    62    23    60    1
    63    27    61    1
    64    27    62    1
    65    28    63    1
    66    28    64    1
    67    29    65    1
    68    29    66    1
    69    29    67    1
    70    31    68    1
    71    31    69    1
    72    32    70    1
    73    32    71    1
    74    32    72    1
    75    33    73    1
    76    33    74    1
    77    34    75    1
    78    34    76    1
    79    35    77    1
    80    35    78    1
    81    36    79    1
    82    36    80    1
    83    37    81    1
    84    37    82    1
    85    37    83    1
    86    38    84    1
    87    38    85    1
    88    38    86    1
@<TRIPOS>MOLECULE
01012527H
 86 88 0 0 0
SMALL
GASTEIGER

@<TRIPOS>ATOM
      1 C          -0.8115    3.0513    5.5055 C.3     1  LIG1        0.0531
      2 C          -1.0636    2.1296    4.3194 C.3     1  LIG1       -0.0111
      3 C          -2.1563    3.4334    6.1069 C.3     1  LIG1        0.0375
      4 C          -0.0115    2.0992    6.3856 C.2     1  LIG1        0.0509
      5 N          -2.5034    1.6015    4.5419 N.4     1  LIG1        0.2448
      6 C          -1.0495    2.7592    2.9080 C.3     1  LIG1       -0.0039
      7 C          -2.6220    4.7998    5.6126 C.ar    1  LIG1       -0.0313
      8 C          -3.0613    2.2436    5.8056 C.3     1  LIG1       -0.0234
      9 O           1.2211    2.0852    6.1473 O.co2   1  LIG1       -0.5493
     10 O          -0.6963    1.3591    7.1440 O.co2   1  LIG1       -0.5493
     11 C          -2.5250    0.0709    4.6072 C.3     1  LIG1        0.0465
     12 C           0.3146    3.1305    2.2525 C.3     1  LIG1       -0.0298
     13 C          -3.3884    4.9911    4.4551 C.ar    1  LIG1       -0.0122
     14 C          -2.2054    5.9419    6.3518 C.ar    1  LIG1       -0.0124
     15 C          -3.9433   -0.5104    4.6715 C.2     1  LIG1        0.2608
     16 C           0.1085    3.3206    0.7140 C.3     1  LIG1       -0.0479
     17 C           0.8980    4.4227    2.8491 C.3     1  LIG1       -0.0596
     18 C           1.3479    2.0003    2.4279 C.3     1  LIG1       -0.0596
     19 C          -3.6567    6.2845    4.0525 C.ar    1  LIG1        0.1702
     20 C          -2.5370    7.2434    5.9524 C.ar    1  LIG1        0.1656
     21 N          -4.1174   -1.8676    4.4204 N.am    1  LIG1       -0.2971
     22 O          -4.8968    0.2362    4.9172 O.2     1  LIG1       -0.2697
     23 C          -0.9234    4.3776    0.3020 C.3     1  LIG1       -0.0554
     24 C          -3.2421    7.3794    4.7733 C.ar    1  LIG1        0.2075
     25 O          -4.3333    6.6261    2.9226 O.3     1  LIG1       -0.4525
     26 O          -2.1948    8.3887    6.6101 O.3     1  LIG1       -0.4913
     27 C          -3.0428   -2.7941    4.0385 C.3     1  LIG1        0.0148
     28 C          -5.4609   -2.4389    4.5684 C.3     1  LIG1        0.0148
     29 C          -1.0182    4.4885   -1.2132 C.3     1  LIG1       -0.0653
     30 O          -3.6205    8.5492    4.1845 O.3     1  LIG1       -0.4489
     31 C          -4.2575    8.0667    2.9891 C.3     1  LIG1        0.2334
     32 C          -1.8625    8.2478    7.9860 C.3     1  LIG1        0.0790
     33 C          -2.2967   -3.3507    5.2524 C.3     1  LIG1       -0.0374
     34 C          -6.2564   -2.4694    3.2574 C.3     1  LIG1       -0.0374
     35 C          -1.0890   -4.2088    4.8649 C.3     1  LIG1       -0.0545
     36 C          -6.6833   -1.0807    2.7749 C.3     1  LIG1       -0.0545
     37 C          -1.4708   -5.5263    4.2095 C.3     1  LIG1       -0.0652
     38 C          -7.5988   -1.1572    1.5644 C.3     1  LIG1       -0.0652
     39 H          -0.1915    3.9198    5.2803 H       1  LIG1        0.0424
     40 H          -0.4208    1.2420    4.2920 H       1  LIG1        0.0858
     41 H          -2.0933    3.5155    7.2012 H       1  LIG1        0.0409
     42 H          -3.1263    1.8770    3.7773 H       1  LIG1        0.2042
     43 H          -1.6916    3.6432    2.8996 H       1  LIG1        0.0325
     44 H          -1.5352    2.0368    2.2357 H       1  LIG1        0.0325
     45 H          -4.1020    2.5235    5.6124 H       1  LIG1        0.0821
     46 H          -3.0444    1.4983    6.6078 H       1  LIG1        0.0821
     47 H          -1.9477   -0.2398    5.4806 H       1  LIG1        0.0913
     48 H          -2.0399   -0.2523    3.6831 H       1  LIG1        0.0913
     49 H          -3.7530    4.1742    3.8470 H       1  LIG1        0.0658
     50 H          -1.5965    5.7845    7.2400 H       1  LIG1        0.0658
     51 H          -0.1889    2.3582    0.2743 H       1  LIG1        0.0270
     52 H           1.0722    3.5757    0.2522 H       1  LIG1        0.0270
     53 H           1.3287    4.2540    3.8401 H       1  LIG1        0.0235
     54 H           0.1384    5.2062    2.9401 H       1  LIG1        0.0235
     55 H           1.7071    4.8155    2.2223 H       1  LIG1        0.0235
     56 H           1.6365    1.8701    3.4749 H       1  LIG1        0.0235
     57 H           2.2661    2.2161    1.8697 H       1  LIG1        0.0235
     58 H           0.9541    1.0446    2.0643 H       1  LIG1        0.0235
     59 H          -0.6551    5.3565    0.7122 H       1  LIG1        0.0263
     60 H          -1.9144    4.1181    0.6894 H       1  LIG1        0.0263
     61 H          -2.3442   -2.2774    3.3751 H       1  LIG1        0.0464
     62 H          -3.4850   -3.6049    3.4489 H       1  LIG1        0.0464
     63 H          -6.0180   -1.8763    5.3265 H       1  LIG1        0.0464
     64 H          -5.3520   -3.4587    4.9563 H       1  LIG1        0.0464
     65 H          -0.0594    4.7911   -1.6457 H       1  LIG1        0.0230
     66 H          -1.7683    5.2358   -1.4926 H       1  LIG1        0.0230
     67 H          -1.3106    3.5324   -1.6594 H       1  LIG1        0.0230
     68 H          -5.2738    8.4732    2.9421 H       1  LIG1        0.1166
     69 H          -3.6947    8.4277    2.1197 H       1  LIG1        0.1166
     70 H          -1.8152    9.2494    8.4235 H       1  LIG1        0.0660
     71 H          -0.8781    7.7841    8.1045 H       1  LIG1        0.0660
     72 H          -2.6306    7.6847    8.5290 H       1  LIG1        0.0660
     73 H          -2.9829   -3.9317    5.8797 H       1  LIG1        0.0280
     74 H          -1.9404   -2.5231    5.8764 H       1  LIG1        0.0280
     75 H          -7.1545   -3.0772    3.4207 H       1  LIG1        0.0280
     76 H          -5.6725   -2.9659    2.4729 H       1  LIG1        0.0280
     77 H          -0.5103   -4.4260    5.7709 H       1  LIG1        0.0263
     78 H          -0.4286   -3.6448    4.1960 H       1  LIG1        0.0263
     79 H          -5.8018   -0.4882    2.5056 H       1  LIG1        0.0263
     80 H          -7.2048   -0.5507    3.5801 H       1  LIG1        0.0263
     81 H          -2.1274   -6.1121    4.8615 H       1  LIG1        0.0230
     82 H          -0.5730   -6.1215    4.0125 H       1  LIG1        0.0230
     83 H          -1.9810   -5.3695    3.2552 H       1  LIG1        0.0230
     84 H          -7.0994   -1.6505    0.7250 H       1  LIG1        0.0230
     85 H          -7.8856   -0.1501    1.2458 H       1  LIG1        0.0230
     86 H          -8.5130   -1.7115    1.7983 H       1  LIG1        0.0230
@<TRIPOS>BOND
     1     1     2    1
     2     1     3    1
     3     1     4    1
     4     2     5    1
     5     2     6    1
     6     3     8    1
     7     3     7    1
     8     4    10   ar
     9     4     9   ar
    10     5     8    1
    11     5    11    1
    12     6    12    1
    13     7    14   ar
    14     7    13   ar
    15    11    15    1
    16    12    18    1
    17    12    17    1
    18    12    16    1
    19    13    19   ar
    20    14    20   ar
    21    15    22    2
    22    15    21   am
    23    16    23    1
    24    19    25    1
    25    19    24   ar
    26    20    24   ar
    27    20    26    1
    28    21    28    1
    29    21    27    1
    30    23    29    1
    31    24    30    1
    32    25    31    1
    33    26    32    1
    34    27    33    1
    35    28    34    1
    36    30    31    1
    37    33    35    1
    38    34    36    1
    39    35    37    1
    40    36    38    1
    41     1    39    1
    42     2    40    1
    43     3    41    1
    44     5    42    1
    45     6    43    1
    46     6    44    1
    47     8    45    1
    48     8    46    1
    49    11    47    1
    50    11    48    1
    51    13    49    1
    52    14    50    1
    53    16    51    1
    54    16    52    1
    55    17    53    1
    56    17    54    1
    57    17    55    1
    58    18    56    1
    59    18    57    1
    60    18    58    1
    61    23    59    1
    62    23    60    1
    63    27    61    1
    64    27    62    1
    65    28    63    1
    66    28    64    1
    67    29    65    1
    68    29    66    1
    69    29    67    1
    70    31    68    1
    71    31    69    1
    72    32    70    1
    73    32    71    1
    74    32    72    1
    75    33    73    1
    76    33    74    1
    77    34    75    1
    78    34    76    1
    79    35    77    1
    80    35    78    1
    81    36    79    1
    82    36    80    1
    83    37    81    1
    84    37    82    1
    85    37    83    1
    86    38    84    1
    87    38    85    1
    88    38    86    1
@<TRIPOS>MOLECULE
01012527H
 86 88 0 0 0
SMALL
GASTEIGER

@<TRIPOS>ATOM
      1 C          -0.7514    2.9729    5.5038 C.3     1  LIG1        0.0531
      2 C          -0.9545    2.0863    4.2818 C.3     1  LIG1       -0.0111
      3 C          -2.1245    3.4027    6.0169 C.3     1  LIG1        0.0375
      4 C          -0.0721    1.9770    6.4452 C.2     1  LIG1        0.0509
      5 N          -2.3627    1.4778    4.5000 N.4     1  LIG1        0.2448
      6 C          -0.9873    2.8068    2.9082 C.3     1  LIG1       -0.0039
      7 C          -2.6649    4.7877    5.6669 C.ar    1  LIG1       -0.0313
      8 C          -3.0593    2.2643    5.5825 C.3     1  LIG1       -0.0234
      9 O           1.1404    1.7680    6.1917 O.co2   1  LIG1       -0.5493
     10 O          -0.8351    1.3956    7.2639 O.co2   1  LIG1       -0.5493
     11 C          -2.3028   -0.0216    4.8373 C.3     1  LIG1        0.0465
     12 C           0.3681    3.1344    2.2020 C.3     1  LIG1       -0.0298
     13 C          -1.9201    5.7562    4.9830 C.ar    1  LIG1       -0.0122
     14 C          -3.9459    5.1577    6.1744 C.ar    1  LIG1       -0.0124
     15 C          -1.8432   -0.8730    3.6481 C.2     1  LIG1        0.2608
     16 C           0.1285    3.2988    0.6646 C.3     1  LIG1       -0.0479
     17 C           1.0025    4.4213    2.7527 C.3     1  LIG1       -0.0596
     18 C           1.3892    1.9900    2.3696 C.3     1  LIG1       -0.0596
     19 C          -2.4697    7.0104    4.8009 C.ar    1  LIG1        0.1702
     20 C          -4.4840    6.4383    5.9830 C.ar    1  LIG1        0.1656
     21 N          -1.4473   -2.1823    3.8927 N.am    1  LIG1       -0.2971
     22 O          -1.8641   -0.3810    2.5149 O.2     1  LIG1       -0.2697
     23 C          -0.9137    4.3459    0.2539 C.3     1  LIG1       -0.0554
     24 C          -3.7134    7.3438    5.2803 C.ar    1  LIG1        0.2075
     25 O          -1.8575    8.0483    4.1686 O.3     1  LIG1       -0.4525
     26 O          -5.6934    6.8788    6.4340 O.3     1  LIG1       -0.4913
     27 C          -1.4817   -2.8222    5.2143 C.3     1  LIG1        0.0148
     28 C          -0.8663   -2.9526    2.7904 C.3     1  LIG1        0.0148
     29 C          -1.0444    4.4215   -1.2616 C.3     1  LIG1       -0.0653
     30 O          -4.0367    8.6390    5.0032 O.3     1  LIG1       -0.4489
     31 C          -2.8350    9.0920    4.3533 C.3     1  LIG1        0.2334
     32 C          -6.4015    6.0336    7.3299 C.3     1  LIG1        0.0790
     33 C          -0.1422   -2.7331    5.9470 C.3     1  LIG1       -0.0374
     34 C          -1.8991   -3.4657    1.7827 C.3     1  LIG1       -0.0374
     35 C          -0.2374   -3.3733    7.3324 C.3     1  LIG1       -0.0545
     36 C          -2.9075   -4.4378    2.3948 C.3     1  LIG1       -0.0545
     37 C           1.1025   -3.3674    8.0493 C.3     1  LIG1       -0.0652
     38 C          -3.8596   -4.9804    1.3403 C.3     1  LIG1       -0.0652
     39 H          -0.0526    3.7954    5.3572 H       1  LIG1        0.0424
     40 H          -0.2714    1.2353    4.2107 H       1  LIG1        0.0858
     41 H          -2.1015    3.4296    7.1162 H       1  LIG1        0.0409
     42 H          -2.8809    1.5311    3.6149 H       1  LIG1        0.2042
     43 H          -1.5940    3.7162    2.9839 H       1  LIG1        0.0325
     44 H          -1.5358    2.1567    2.2132 H       1  LIG1        0.0325
     45 H          -4.0082    2.5978    5.1509 H       1  LIG1        0.0821
     46 H          -3.2802    1.5907    6.4176 H       1  LIG1        0.0821
     47 H          -3.3258   -0.3204    5.0886 H       1  LIG1        0.0913
     48 H          -1.6420   -0.1552    5.6895 H       1  LIG1        0.0913
     49 H          -0.9164    5.5788    4.6217 H       1  LIG1        0.0658
     50 H          -4.5002    4.4258    6.7564 H       1  LIG1        0.0658
     51 H          -0.1769    2.3283    0.2491 H       1  LIG1        0.0270
     52 H           1.0818    3.5464    0.1775 H       1  LIG1        0.0270
     53 H           1.3338    4.3001    3.7873 H       1  LIG1        0.0235
     54 H           0.3068    5.2642    2.7155 H       1  LIG1        0.0235
     55 H           1.8866    4.7035    2.1685 H       1  LIG1        0.0235
     56 H           1.7236    1.8921    3.4071 H       1  LIG1        0.0235
     57 H           2.2859    2.1697    1.7646 H       1  LIG1        0.0235
     58 H           0.9644    1.0306    2.0538 H       1  LIG1        0.0235
     59 H          -0.6367    5.3347    0.6321 H       1  LIG1        0.0263
     60 H          -1.8940    4.0955    0.6722 H       1  LIG1        0.0263
     61 H          -1.7710   -3.8703    5.0764 H       1  LIG1        0.0464
     62 H          -2.2690   -2.3618    5.8191 H       1  LIG1        0.0464
     63 H          -0.2878   -3.7899    3.1973 H       1  LIG1        0.0464
     64 H          -0.1561   -2.3014    2.2655 H       1  LIG1        0.0464
     65 H          -0.0973    4.7194   -1.7228 H       1  LIG1        0.0230
     66 H          -1.8046    5.1578   -1.5408 H       1  LIG1        0.0230
     67 H          -1.3406    3.4537   -1.6795 H       1  LIG1        0.0230
     68 H          -3.0992    9.5035    3.3729 H       1  LIG1        0.1166
     69 H          -2.3867    9.8890    4.9588 H       1  LIG1        0.1166
     70 H          -7.2950    6.5707    7.6625 H       1  LIG1        0.0660
     71 H          -5.8028    5.8018    8.2172 H       1  LIG1        0.0660
     72 H          -6.7307    5.1190    6.8261 H       1  LIG1        0.0660
     73 H           0.1679   -1.6856    6.0426 H       1  LIG1        0.0280
     74 H           0.6359   -3.2365    5.3606 H       1  LIG1        0.0280
     75 H          -1.3610   -3.9691    0.9700 H       1  LIG1        0.0280
     76 H          -2.4363   -2.6248    1.3298 H       1  LIG1        0.0280
     77 H          -0.5894   -4.4076    7.2423 H       1  LIG1        0.0263
     78 H          -0.9732   -2.8331    7.9399 H       1  LIG1        0.0263
     79 H          -3.4934   -3.9344    3.1718 H       1  LIG1        0.0263
     80 H          -2.3812   -5.2735    2.8699 H       1  LIG1        0.0263
     81 H           1.8486   -3.9402    7.4891 H       1  LIG1        0.0230
     82 H           1.0030   -3.8206    9.0409 H       1  LIG1        0.0230
     83 H           1.4760   -2.3466    8.1776 H       1  LIG1        0.0230
     84 H          -4.4151   -4.1689    0.8591 H       1  LIG1        0.0230
     85 H          -4.5827   -5.6630    1.7974 H       1  LIG1        0.0230
     86 H          -3.3150   -5.5303    0.5661 H       1  LIG1        0.0230
@<TRIPOS>BOND
     1     1     2    1
     2     1     3    1
     3     1     4    1
     4     2     5    1
     5     2     6    1
     6     3     8    1
     7     3     7    1
     8     4    10   ar
     9     4     9   ar
    10     5     8    1
    11     5    11    1
    12     6    12    1
    13     7    14   ar
    14     7    13   ar
    15    11    15    1
    16    12    18    1
    17    12    17    1
    18    12    16    1
    19    13    19   ar
    20    14    20   ar
    21    15    22    2
    22    15    21   am
    23    16    23    1
    24    19    25    1
    25    19    24   ar
    26    20    24   ar
    27    20    26    1
    28    21    28    1
    29    21    27    1
    30    23    29    1
    31    24    30    1
    32    25    31    1
    33    26    32    1
    34    27    33    1
    35    28    34    1
    36    30    31    1
    37    33    35    1
    38    34    36    1
    39    35    37    1
    40    36    38    1
    41     1    39    1
    42     2    40    1
    43     3    41    1
    44     5    42    1
    45     6    43    1
    46     6    44    1
    47     8    45    1
    48     8    46    1
    49    11    47    1
    50    11    48    1
    51    13    49    1
    52    14    50    1
    53    16    51    1
    54    16    52    1
    55    17    53    1
    56    17    54    1
    57    17    55    1
    58    18    56    1
    59    18    57    1
    60    18    58    1
    61    23    59    1
    62    23    60    1
    63    27    61    1
    64    27    62    1
    65    28    63    1
    66    28    64    1
    67    29    65    1
    68    29    66    1
    69    29    67    1
    70    31    68    1
    71    31    69    1
    72    32    70    1
    73    32    71    1
    74    32    72    1
    75    33    73    1
    76    33    74    1
    77    34    75    1
    78    34    76    1
    79    35    77    1
    80    35    78    1
    81    36    79    1
    82    36    80    1
    83    37    81    1
    84    37    82    1
    85    37    83    1
    86    38    84    1
    87    38    85    1
    88    38    86    1
@<TRIPOS>MOLECULE
01012527H
 86 88 0 0 0
SMALL
GASTEIGER

@<TRIPOS>ATOM
      1 C          -0.8503    2.9517    5.4513 C.3     1  LIG1        0.0531
      2 C          -1.0812    2.0576    4.2429 C.3     1  LIG1       -0.0111
      3 C          -2.2089    3.3388    6.0194 C.3     1  LIG1        0.0375
      4 C          -0.0774    1.9866    6.3408 C.2     1  LIG1        0.0509
      5 N          -2.5225    1.5186    4.4314 N.4     1  LIG1        0.2448
      6 C          -1.0426    2.7111    2.8421 C.3     1  LIG1       -0.0039
      7 C          -2.6231    4.7194    5.5207 C.ar    1  LIG1       -0.0313
      8 C          -3.1116    2.1529    5.6834 C.3     1  LIG1       -0.0234
      9 O           1.1615    1.9700    6.1311 O.co2   1  LIG1       -0.5493
     10 O          -0.7838    1.2457    7.0762 O.co2   1  LIG1       -0.5493
     11 C          -2.5231   -0.0124    4.4924 C.3     1  LIG1        0.0465
     12 C           0.3432    3.0527    2.2086 C.3     1  LIG1       -0.0298
     13 C          -3.4526    4.9370    4.4133 C.ar    1  LIG1       -0.0122
     14 C          -2.0789    5.8464    6.2019 C.ar    1  LIG1       -0.0124
     15 C          -3.9303   -0.6264    4.5141 C.2     1  LIG1        0.2608
     16 C           0.1552    3.3245    0.6778 C.3     1  LIG1       -0.0479
     17 C           0.9137    4.3485    2.8221 C.3     1  LIG1       -0.0596
     18 C           1.3696    1.9267    2.4182 C.3     1  LIG1       -0.0596
     19 C          -3.6750    6.2400    4.0117 C.ar    1  LIG1        0.1702
     20 C          -2.3374    7.1598    5.7906 C.ar    1  LIG1        0.1656
     21 N          -4.0363   -2.0175    4.4752 N.am    1  LIG1       -0.2971
     22 O          -4.9193    0.1123    4.5558 O.2     1  LIG1       -0.2697
     23 C          -0.1748    2.1011   -0.1910 C.3     1  LIG1       -0.0554
     24 C          -3.1375    7.3186    4.6754 C.ar    1  LIG1        0.2075
     25 O          -4.4147    6.6075    2.9293 O.3     1  LIG1       -0.4525
     26 O          -1.8635    8.2965    6.3767 O.3     1  LIG1       -0.4913
     27 C          -2.9377   -2.9100    4.0712 C.3     1  LIG1        0.0148
     28 C          -5.3695   -2.6125    4.6260 C.3     1  LIG1        0.0148
     29 C          -0.3436    2.4889   -1.6534 C.3     1  LIG1       -0.0653
     30 O          -3.4843    8.5008    4.0912 O.3     1  LIG1       -0.4489
     31 C          -4.2536    8.0414    2.9665 C.3     1  LIG1        0.2334
     32 C          -1.0339    8.1379    7.5207 C.3     1  LIG1        0.0790
     33 C          -2.0674   -3.3825    5.2346 C.3     1  LIG1       -0.0374
     34 C          -5.9445   -2.5335    6.0459 C.3     1  LIG1       -0.0374
     35 C          -0.8406   -4.1730    4.7715 C.3     1  LIG1       -0.0545
     36 C          -5.1636   -3.3706    7.0582 C.3     1  LIG1       -0.0545
     37 C          -1.1923   -5.5348    4.1912 C.3     1  LIG1       -0.0652
     38 C          -5.8906   -3.4705    8.3901 C.3     1  LIG1       -0.0652
     39 H          -0.2164    3.8175    5.2556 H       1  LIG1        0.0424
     40 H          -0.4336    1.1737    4.2121 H       1  LIG1        0.0858
     41 H          -2.1782    3.4154    7.1154 H       1  LIG1        0.0409
     42 H          -3.1329    1.7871    3.6534 H       1  LIG1        0.2042
     43 H          -1.6670    3.6101    2.8270 H       1  LIG1        0.0325
     44 H          -1.5441    2.0063    2.1683 H       1  LIG1        0.0325
     45 H          -4.1474    2.4316    5.4672 H       1  LIG1        0.0821
     46 H          -3.1174    1.4016    6.4792 H       1  LIG1        0.0821
     47 H          -1.9651   -0.3133    5.3808 H       1  LIG1        0.0913
     48 H          -2.0100   -0.3303    3.5815 H       1  LIG1        0.0913
     49 H          -3.9008    4.1332    3.8435 H       1  LIG1        0.0658
     50 H          -1.4331    5.6586    7.0578 H       1  LIG1        0.0658
     51 H           1.0761    3.7721    0.2794 H       1  LIG1        0.0270
     52 H          -0.6312    4.0799    0.5446 H       1  LIG1        0.0270
     53 H           1.2597    4.1991    3.8475 H       1  LIG1        0.0235
     54 H           0.1684    5.1518    2.8218 H       1  LIG1        0.0235
     55 H           1.7824    4.7049    2.2558 H       1  LIG1        0.0235
     56 H           1.6827    1.8556    3.4642 H       1  LIG1        0.0235
     57 H           2.2746    2.1050    1.8264 H       1  LIG1        0.0235
     58 H           0.9636    0.9515    2.1303 H       1  LIG1        0.0235
     59 H          -1.0954    1.6156    0.1449 H       1  LIG1        0.0263
     60 H           0.6284    1.3597   -0.1249 H       1  LIG1        0.0263
     61 H          -2.3176   -2.3872    3.3369 H       1  LIG1        0.0464
     62 H          -3.3657   -3.7657    3.5380 H       1  LIG1        0.0464
     63 H          -5.3482   -3.6578    4.2980 H       1  LIG1        0.0464
     64 H          -6.0459   -2.0830    3.9436 H       1  LIG1        0.0464
     65 H          -1.1651    3.2011   -1.7783 H       1  LIG1        0.0230
     66 H          -0.5681    1.6024   -2.2555 H       1  LIG1        0.0230
     67 H           0.5712    2.9429   -2.0474 H       1  LIG1        0.0230
     68 H          -5.2455    8.5051    3.0044 H       1  LIG1        0.1166
     69 H          -3.7529    8.3607    2.0447 H       1  LIG1        0.1166
     70 H          -0.7503    9.1356    7.8695 H       1  LIG1        0.0660
     71 H          -0.1144    7.5993    7.2690 H       1  LIG1        0.0660
     72 H          -1.5731    7.6421    8.3348 H       1  LIG1        0.0660
     73 H          -2.6562   -4.0029    5.9171 H       1  LIG1        0.0280
     74 H          -1.7235   -2.5208    5.8164 H       1  LIG1        0.0280
     75 H          -6.9803   -2.8935    6.0083 H       1  LIG1        0.0280
     76 H          -5.9846   -1.4936    6.3894 H       1  LIG1        0.0280
     77 H          -0.1769   -4.3235    5.6310 H       1  LIG1        0.0263
     78 H          -0.2757   -3.5935    4.0322 H       1  LIG1        0.0263
     79 H          -4.1816   -2.9185    7.2314 H       1  LIG1        0.0263
     80 H          -5.0024   -4.3814    6.6663 H       1  LIG1        0.0263
     81 H          -1.7604   -6.1320    4.9118 H       1  LIG1        0.0230
     82 H          -0.2792   -6.0849    3.9423 H       1  LIG1        0.0230
     83 H          -1.7846   -5.4426    3.2762 H       1  LIG1        0.0230
     84 H          -6.0496   -2.4796    8.8267 H       1  LIG1        0.0230
     85 H          -5.3026   -4.0644    9.0974 H       1  LIG1        0.0230
     86 H          -6.8646   -3.9557    8.2697 H       1  LIG1        0.0230
@<TRIPOS>BOND
     1     1     2    1
     2     1     3    1
     3     1     4    1
     4     2     5    1
     5     2     6    1
     6     3     8    1
     7     3     7    1
     8     4    10   ar
     9     4     9   ar
    10     5     8    1
    11     5    11    1
    12     6    12    1
    13     7    14   ar
    14     7    13   ar
    15    11    15    1
    16    12    18    1
    17    12    17    1
    18    12    16    1
    19    13    19   ar
    20    14    20   ar
    21    15    22    2
    22    15    21   am
    23    16    23    1
    24    19    25    1
    25    19    24   ar
    26    20    24   ar
    27    20    26    1
    28    21    28    1
    29    21    27    1
    30    23    29    1
    31    24    30    1
    32    25    31    1
    33    26    32    1
    34    27    33    1
    35    28    34    1
    36    30    31    1
    37    33    35    1
    38    34    36    1
    39    35    37    1
    40    36    38    1
    41     1    39    1
    42     2    40    1
    43     3    41    1
    44     5    42    1
    45     6    43    1
    46     6    44    1
    47     8    45    1
    48     8    46    1
    49    11    47    1
    50    11    48    1
    51    13    49    1
    52    14    50    1
    53    16    51    1
    54    16    52    1
    55    17    53    1
    56    17    54    1
    57    17    55    1
    58    18    56    1
    59    18    57    1
    60    18    58    1
    61    23    59    1
    62    23    60    1
    63    27    61    1
    64    27    62    1
    65    28    63    1
    66    28    64    1
    67    29    65    1
    68    29    66    1
    69    29    67    1
    70    31    68    1
    71    31    69    1
    72    32    70    1
    73    32    71    1
    74    32    72    1
    75    33    73    1
    76    33    74    1
    77    34    75    1
    78    34    76    1
    79    35    77    1
    80    35    78    1
    81    36    79    1
    82    36    80    1
    83    37    81    1
    84    37    82    1
    85    37    83    1
    86    38    84    1
    87    38    85    1
    88    38    86    1
@<TRIPOS>MOLECULE
01012527H
 86 88 0 0 0
SMALL
GASTEIGER

@<TRIPOS>ATOM
      1 C          -0.9373    3.0859    5.4801 C.3     1  LIG1        0.0531
      2 C          -1.0528    2.0902    4.3312 C.3     1  LIG1       -0.0111
      3 C          -2.3347    3.3656    6.0130 C.3     1  LIG1        0.0375
      4 C          -0.0946    2.2501    6.4377 C.2     1  LIG1        0.0509
      5 N          -2.4309    1.3995    4.5660 N.4     1  LIG1        0.2448
      6 C          -1.0829    2.7238    2.9171 C.3     1  LIG1       -0.0039
      7 C          -2.9507    4.6715    5.5295 C.ar    1  LIG1       -0.0313
      8 C          -3.1309    2.1023    5.7091 C.3     1  LIG1       -0.0234
      9 O          -0.7488    1.5238    7.2368 O.co2   1  LIG1       -0.5493
     10 O           1.1416    2.2938    6.2185 O.co2   1  LIG1       -0.5493
     11 C          -2.2865   -0.0931    4.8942 C.3     1  LIG1        0.0465
     12 C           0.2744    3.1262    2.2552 C.3     1  LIG1       -0.0298
     13 C          -2.7090    5.8265    6.2985 C.ar    1  LIG1       -0.0122
     14 C          -3.7964    4.7711    4.3979 C.ar    1  LIG1       -0.0124
     15 C          -1.8437   -0.9492    3.7045 C.2     1  LIG1        0.2608
     16 C           0.0678    3.3077    0.7159 C.3     1  LIG1       -0.0479
     17 C           0.8308    4.4311    2.8506 C.3     1  LIG1       -0.0596
     18 C           1.3384    2.0225    2.4297 C.3     1  LIG1       -0.0596
     19 C          -3.3415    7.0000    5.9489 C.ar    1  LIG1        0.1702
     20 C          -4.4296    5.9776    4.0614 C.ar    1  LIG1        0.1656
     21 N          -1.4726   -2.2703    3.9582 N.am    1  LIG1       -0.2971
     22 O          -1.8676   -0.4616    2.5702 O.2     1  LIG1       -0.2697
     23 C          -0.9847    4.3399    0.2965 C.3     1  LIG1       -0.0554
     24 C          -4.1788    7.0765    4.8633 C.ar    1  LIG1        0.2075
     25 O          -3.2499    8.1759    6.6255 O.3     1  LIG1       -0.4525
     26 O          -5.2757    6.1667    3.0075 O.3     1  LIG1       -0.4913
     27 C          -1.4918   -2.8569    5.3097 C.3     1  LIG1        0.0148
     28 C          -0.7783   -3.0093    2.8920 C.3     1  LIG1        0.0148
     29 C          -1.0736    4.4429   -1.2204 C.3     1  LIG1       -0.0653
     30 O          -4.7190    8.3208    4.7237 O.3     1  LIG1       -0.4489
     31 C          -4.1623    8.9951    5.8680 C.3     1  LIG1        0.2334
     32 C          -5.8437    5.0037    2.4226 C.3     1  LIG1        0.0790
     33 C          -0.1434   -2.7611    6.0239 C.3     1  LIG1       -0.0374
     34 C          -1.2835   -4.4407    2.6917 C.3     1  LIG1       -0.0374
     35 C          -0.1756   -3.3575    7.4333 C.3     1  LIG1       -0.0545
     36 C          -0.6282   -5.1484    1.5032 C.3     1  LIG1       -0.0545
     37 C          -1.0366   -2.5672    8.4077 C.3     1  LIG1       -0.0652
     38 C           0.8638   -5.3804    1.6929 C.3     1  LIG1       -0.0652
     39 H          -0.3928    4.0006    5.2386 H       1  LIG1        0.0424
     40 H          -0.3144    1.2822    4.3352 H       1  LIG1        0.0858
     41 H          -2.3122    3.4580    7.1088 H       1  LIG1        0.0409
     42 H          -2.9725    1.4472    3.6964 H       1  LIG1        0.2042
     43 H          -1.7424    3.5967    2.9270 H       1  LIG1        0.0325
     44 H          -1.5596    2.0072    2.2366 H       1  LIG1        0.0325
     45 H          -4.1700    2.2652    5.4087 H       1  LIG1        0.0821
     46 H          -3.1416    1.4302    6.5747 H       1  LIG1        0.0821
     47 H          -3.2844   -0.4328    5.1924 H       1  LIG1        0.0913
     48 H          -1.5828   -0.1841    5.7203 H       1  LIG1        0.0913
     49 H          -2.0644    5.8024    7.1738 H       1  LIG1        0.0658
     50 H          -3.9615    3.8981    3.7780 H       1  LIG1        0.0658
     51 H          -0.2059    2.3374    0.2785 H       1  LIG1        0.0270
     52 H           1.0271    3.5830    0.2560 H       1  LIG1        0.0270
     53 H           1.2402    4.2762    3.8530 H       1  LIG1        0.0235
     54 H           0.0610    5.2069    2.9168 H       1  LIG1        0.0235
     55 H           1.6489    4.8263    2.2368 H       1  LIG1        0.0235
     56 H           1.6475    1.9133    3.4736 H       1  LIG1        0.0235
     57 H           2.2437    2.2537    1.8559 H       1  LIG1        0.0235
     58 H           0.9636    1.0533    2.0824 H       1  LIG1        0.0235
     59 H          -0.7389    5.3261    0.7028 H       1  LIG1        0.0263
     60 H          -1.9707    4.0601    0.6815 H       1  LIG1        0.0263
     61 H          -1.8160   -3.8991    5.2382 H       1  LIG1        0.0464
     62 H          -2.2669   -2.3580    5.8969 H       1  LIG1        0.0464
     63 H           0.2862   -3.0061    3.1494 H       1  LIG1        0.0464
     64 H          -0.8686   -2.4675    1.9442 H       1  LIG1        0.0464
     65 H          -0.1196    4.7675   -1.6484 H       1  LIG1        0.0230
     66 H          -1.8397    5.1698   -1.5073 H       1  LIG1        0.0230
     67 H          -1.3384    3.4778   -1.6646 H       1  LIG1        0.0230
     68 H          -3.6318    9.8909    5.5270 H       1  LIG1        0.1166
     69 H          -4.9837    9.3033    6.5262 H       1  LIG1        0.1166
     70 H          -6.6226    5.3252    1.7247 H       1  LIG1        0.0660
     71 H          -6.3164    4.3665    3.1782 H       1  LIG1        0.0660
     72 H          -5.0929    4.4467    1.8532 H       1  LIG1        0.0660
     73 H           0.1919   -1.7183    6.0687 H       1  LIG1        0.0280
     74 H           0.6123   -3.3027    5.4428 H       1  LIG1        0.0280
     75 H          -2.3690   -4.4189    2.5351 H       1  LIG1        0.0280
     76 H          -1.1071   -5.0417    3.5905 H       1  LIG1        0.0280
     77 H           0.8492   -3.3877    7.8215 H       1  LIG1        0.0263
     78 H          -0.5297   -4.3943    7.3919 H       1  LIG1        0.0263
     79 H          -0.7966   -4.5756    0.5842 H       1  LIG1        0.0263
     80 H          -1.1166   -6.1206    1.3664 H       1  LIG1        0.0263
     81 H          -0.7241   -1.5190    8.4475 H       1  LIG1        0.0230
     82 H          -0.9446   -2.9871    9.4146 H       1  LIG1        0.0230
     83 H          -2.0947   -2.6026    8.1328 H       1  LIG1        0.0230
     84 H           1.4174   -4.4370    1.7078 H       1  LIG1        0.0230
     85 H           1.2590   -5.9835    0.8693 H       1  LIG1        0.0230
     86 H           1.0635   -5.9129    2.6284 H       1  LIG1        0.0230
@<TRIPOS>BOND
     1     1     2    1
     2     1     3    1
     3     1     4    1
     4     2     5    1
     5     2     6    1
     6     3     8    1
     7     3     7    1
     8     4    10   ar
     9     4     9   ar
    10     5     8    1
    11     5    11    1
    12     6    12    1
    13     7    14   ar
    14     7    13   ar
    15    11    15    1
    16    12    18    1
    17    12    17    1
    18    12    16    1
    19    13    19   ar
    20    14    20   ar
    21    15    22    2
    22    15    21   am
    23    16    23    1
    24    19    25    1
    25    19    24   ar
    26    20    24   ar
    27    20    26    1
    28    21    28    1
    29    21    27    1
    30    23    29    1
    31    24    30    1
    32    25    31    1
    33    26    32    1
    34    27    33    1
    35    28    34    1
    36    30    31    1
    37    33    35    1
    38    34    36    1
    39    35    37    1
    40    36    38    1
    41     1    39    1
    42     2    40    1
    43     3    41    1
    44     5    42    1
    45     6    43    1
    46     6    44    1
    47     8    45    1
    48     8    46    1
    49    11    47    1
    50    11    48    1
    51    13    49    1
    52    14    50    1
    53    16    51    1
    54    16    52    1
    55    17    53    1
    56    17    54    1
    57    17    55    1
    58    18    56    1
    59    18    57    1
    60    18    58    1
    61    23    59    1
    62    23    60    1
    63    27    61    1
    64    27    62    1
    65    28    63    1
    66    28    64    1
    67    29    65    1
    68    29    66    1
    69    29    67    1
    70    31    68    1
    71    31    69    1
    72    32    70    1
    73    32    71    1
    74    32    72    1
    75    33    73    1
    76    33    74    1
    77    34    75    1
    78    34    76    1
    79    35    77    1
    80    35    78    1
    81    36    79    1
    82    36    80    1
    83    37    81    1
    84    37    82    1
    85    37    83    1
    86    38    84    1
    87    38    85    1
    88    38    86    1
@<TRIPOS>MOLECULE
01012527H
 86 88 0 0 0
SMALL
GASTEIGER

@<TRIPOS>ATOM
      1 C          -0.8563    3.0214    5.4861 C.3     1  LIG1        0.0531
      2 C          -1.0822    2.1129    4.2870 C.3     1  LIG1       -0.0111
      3 C          -2.2160    3.4097    6.0505 C.3     1  LIG1        0.0375
      4 C          -0.0880    2.0520    6.3805 C.2     1  LIG1        0.0509
      5 N          -2.5238    1.5777    4.4775 N.4     1  LIG1        0.2448
      6 C          -1.0393    2.7460    2.8769 C.3     1  LIG1       -0.0039
      7 C          -2.6552    4.7790    5.5475 C.ar    1  LIG1       -0.0313
      8 C          -3.1193    2.2240    5.7201 C.3     1  LIG1       -0.0234
      9 O           1.1457    2.0069    6.1524 O.co2   1  LIG1       -0.5493
     10 O          -0.8002    1.3260    7.1264 O.co2   1  LIG1       -0.5493
     11 C          -2.5319    0.0522    4.5607 C.3     1  LIG1        0.0465
     12 C           0.3462    3.0747    2.2378 C.3     1  LIG1       -0.0298
     13 C          -3.4265    4.9838    4.3986 C.ar    1  LIG1       -0.0122
     14 C          -2.2192    5.9162    6.2764 C.ar    1  LIG1       -0.0124
     15 C          -3.9437   -0.5463    4.5061 C.2     1  LIG1        0.2608
     16 C           0.1545    3.3323    0.7048 C.3     1  LIG1       -0.0479
     17 C           0.9223    4.3738    2.8384 C.3     1  LIG1       -0.0596
     18 C           1.3677    1.9461    2.4555 C.3     1  LIG1       -0.0596
     19 C          -3.6908    6.2839    4.0086 C.ar    1  LIG1        0.1702
     20 C          -2.5423    7.2262    5.8917 C.ar    1  LIG1        0.1656
     21 N          -4.0523   -1.9338    4.4643 N.am    1  LIG1       -0.2971
     22 O          -4.9272    0.1997    4.4863 O.2     1  LIG1       -0.2697
     23 C          -0.1830    2.1016   -0.1505 C.3     1  LIG1       -0.0554
     24 C          -3.2659    7.3815    4.7273 C.ar    1  LIG1        0.2075
     25 O          -4.3740    6.6232    2.8799 O.3     1  LIG1       -0.4525
     26 O          -2.0682    8.1997    6.7213 O.3     1  LIG1       -0.4913
     27 C          -2.9157   -2.8398    4.2506 C.3     1  LIG1        0.0148
     28 C          -5.3872   -2.5342    4.5217 C.3     1  LIG1        0.0148
     29 C          -0.3630    2.4761   -1.6152 C.3     1  LIG1       -0.0653
     30 O          -3.6385    8.5446    4.1233 O.3     1  LIG1       -0.4489
     31 C          -4.2820    8.0600    2.9321 C.3     1  LIG1        0.2334
     32 C          -2.6738    9.4816    6.6091 C.3     1  LIG1        0.0790
     33 C          -2.6367   -3.0273    2.7560 C.3     1  LIG1       -0.0374
     34 C          -5.9345   -2.6198    5.9512 C.3     1  LIG1       -0.0374
     35 C          -1.4728   -3.9739    2.4638 C.3     1  LIG1       -0.0545
     36 C          -5.1183   -3.5489    6.8522 C.3     1  LIG1       -0.0545
     37 C          -0.1353   -3.4698    2.9833 C.3     1  LIG1       -0.0652
     38 C          -5.7304   -3.6633    8.2398 C.3     1  LIG1       -0.0652
     39 H          -0.2220    3.8864    5.2883 H       1  LIG1        0.0424
     40 H          -0.4364    1.2272    4.2663 H       1  LIG1        0.0858
     41 H          -2.1832    3.4894    7.1462 H       1  LIG1        0.0409
     42 H          -3.1320    1.8354    3.6938 H       1  LIG1        0.2042
     43 H          -1.6589    3.6472    2.8478 H       1  LIG1        0.0325
     44 H          -1.5434    2.0335    2.2130 H       1  LIG1        0.0325
     45 H          -4.1531    2.5025    5.4935 H       1  LIG1        0.0821
     46 H          -3.1340    1.4808    6.5232 H       1  LIG1        0.0821
     47 H          -2.0288   -0.2443    5.4838 H       1  LIG1        0.0913
     48 H          -1.9728   -0.2915    3.6861 H       1  LIG1        0.0913
     49 H          -3.8007    4.1720    3.7878 H       1  LIG1        0.0658
     50 H          -1.6132    5.7800    7.1733 H       1  LIG1        0.0658
     51 H           1.0756    3.7732    0.2996 H       1  LIG1        0.0270
     52 H          -0.6298    4.0892    0.5671 H       1  LIG1        0.0270
     53 H           1.2627    4.2334    3.8674 H       1  LIG1        0.0235
     54 H           0.1819    5.1810    2.8268 H       1  LIG1        0.0235
     55 H           1.7945    4.7183    2.2714 H       1  LIG1        0.0235
     56 H           1.6846    1.8842    3.5008 H       1  LIG1        0.0235
     57 H           2.2717    2.1143    1.8585 H       1  LIG1        0.0235
     58 H           0.9564    0.9699    2.1786 H       1  LIG1        0.0235
     59 H          -1.1009    1.6195    0.1960 H       1  LIG1        0.0263
     60 H           0.6206    1.3601   -0.0835 H       1  LIG1        0.0263
     61 H          -3.1350   -3.8034    4.7231 H       1  LIG1        0.0464
     62 H          -2.0383   -2.4303    4.7568 H       1  LIG1        0.0464
     63 H          -5.3611   -3.5269    4.0578 H       1  LIG1        0.0464
     64 H          -6.0690   -1.9210    3.9204 H       1  LIG1        0.0464
     65 H          -1.1856    3.1867   -1.7401 H       1  LIG1        0.0230
     66 H          -0.5910    1.5845   -2.2074 H       1  LIG1        0.0230
     67 H           0.5488    2.9275   -2.0201 H       1  LIG1        0.0230
     68 H          -5.2937    8.4789    2.8835 H       1  LIG1        0.1166
     69 H          -3.7161    8.4078    2.0604 H       1  LIG1        0.1166
     70 H          -2.3631   10.0711    7.4771 H       1  LIG1        0.0660
     71 H          -3.7670    9.4174    6.6326 H       1  LIG1        0.0660
     72 H          -2.3203   10.0020    5.7141 H       1  LIG1        0.0660
     73 H          -2.4435   -2.0579    2.2819 H       1  LIG1        0.0280
     74 H          -3.5370   -3.4244    2.2694 H       1  LIG1        0.0280
     75 H          -6.9684   -2.9833    5.9031 H       1  LIG1        0.0280
     76 H          -5.9693   -1.6192    6.3985 H       1  LIG1        0.0280
     77 H          -1.3979   -4.1037    1.3772 H       1  LIG1        0.0263
     78 H          -1.6807   -4.9638    2.8872 H       1  LIG1        0.0263
     79 H          -4.0941   -3.1738    6.9541 H       1  LIG1        0.0263
     80 H          -5.0588   -4.5469    6.4024 H       1  LIG1        0.0263
     81 H           0.0675   -2.4532    2.6313 H       1  LIG1        0.0230
     82 H           0.6731   -4.1187    2.6308 H       1  LIG1        0.0230
     83 H          -0.1051   -3.4707    4.0766 H       1  LIG1        0.0230
     84 H          -5.7754   -2.6855    8.7297 H       1  LIG1        0.0230
     85 H          -5.1271   -4.3287    8.8654 H       1  LIG1        0.0230
     86 H          -6.7448   -4.0712    8.1896 H       1  LIG1        0.0230
@<TRIPOS>BOND
     1     1     2    1
     2     1     3    1
     3     1     4    1
     4     2     5    1
     5     2     6    1
     6     3     8    1
     7     3     7    1
     8     4    10   ar
     9     4     9   ar
    10     5     8    1
    11     5    11    1
    12     6    12    1
    13     7    14   ar
    14     7    13   ar
    15    11    15    1
    16    12    18    1
    17    12    17    1
    18    12    16    1
    19    13    19   ar
    20    14    20   ar
    21    15    22    2
    22    15    21   am
    23    16    23    1
    24    19    25    1
    25    19    24   ar
    26    20    24   ar
    27    20    26    1
    28    21    28    1
    29    21    27    1
    30    23    29    1
    31    24    30    1
    32    25    31    1
    33    26    32    1
    34    27    33    1
    35    28    34    1
    36    30    31    1
    37    33    35    1
    38    34    36    1
    39    35    37    1
    40    36    38    1
    41     1    39    1
    42     2    40    1
    43     3    41    1
    44     5    42    1
    45     6    43    1
    46     6    44    1
    47     8    45    1
    48     8    46    1
    49    11    47    1
    50    11    48    1
    51    13    49    1
    52    14    50    1
    53    16    51    1
    54    16    52    1
    55    17    53    1
    56    17    54    1
    57    17    55    1
    58    18    56    1
    59    18    57    1
    60    18    58    1
    61    23    59    1
    62    23    60    1
    63    27    61    1
    64    27    62    1
    65    28    63    1
    66    28    64    1
    67    29    65    1
    68    29    66    1
    69    29    67    1
    70    31    68    1
    71    31    69    1
    72    32    70    1
    73    32    71    1
    74    32    72    1
    75    33    73    1
    76    33    74    1
    77    34    75    1
    78    34    76    1
    79    35    77    1
    80    35    78    1
    81    36    79    1
    82    36    80    1
    83    37    81    1
    84    37    82    1
    85    37    83    1
    86    38    84    1
    87    38    85    1
    88    38    86    1
@<TRIPOS>MOLECULE
01012527H
 86 88 0 0 0
SMALL
GASTEIGER

@<TRIPOS>ATOM
      1 C          -0.9120    3.0063    5.4855 C.3     1  LIG1        0.0531
      2 C          -1.0264    2.0788    4.2823 C.3     1  LIG1       -0.0111
      3 C          -2.3172    3.4258    5.8966 C.3     1  LIG1        0.0375
      4 C          -0.2545    2.0629    6.4864 C.2     1  LIG1        0.0509
      5 N          -2.4600    1.4825    4.4160 N.4     1  LIG1        0.2448
      6 C          -0.9485    2.7462    2.8867 C.3     1  LIG1       -0.0039
      7 C          -2.6817    4.8221    5.4127 C.ar    1  LIG1       -0.0313
      8 C          -3.2172    2.2738    5.4581 C.3     1  LIG1       -0.0234
      9 O           0.9791    1.8990    6.3157 O.co2   1  LIG1       -0.5493
     10 O          -1.0453    1.4716    7.2705 O.co2   1  LIG1       -0.5493
     11 C          -2.4286   -0.0133    4.7790 C.3     1  LIG1        0.0465
     12 C           0.4476    3.1208    2.2826 C.3     1  LIG1       -0.0298
     13 C          -3.3534    5.0832    4.2123 C.ar    1  LIG1       -0.0122
     14 C          -2.3010    5.9183    6.2379 C.ar    1  LIG1       -0.0124
     15 C          -1.9355   -0.8846    3.6174 C.2     1  LIG1        0.2608
     16 C           0.1922    3.4038    0.7631 C.3     1  LIG1       -0.0479
     17 C           1.0253    4.3729    2.9607 C.3     1  LIG1       -0.0596
     18 C           1.4467    1.9620    2.4398 C.3     1  LIG1       -0.0596
     19 C          -3.5885    6.4002    3.8687 C.ar    1  LIG1        0.1702
     20 C          -2.5874    7.2431    5.8880 C.ar    1  LIG1        0.1656
     21 N          -1.4906   -2.1754    3.8879 N.am    1  LIG1       -0.2971
     22 O          -1.9790   -0.4180    2.4734 O.2     1  LIG1       -0.2697
     23 C           1.3940    3.8493   -0.0783 C.3     1  LIG1       -0.0554
     24 C          -3.2177    7.4494    4.6767 C.ar    1  LIG1        0.2075
     25 O          -4.1979    6.8105    2.7230 O.3     1  LIG1       -0.4525
     26 O          -2.2840    8.3493    6.6274 O.3     1  LIG1       -0.4913
     27 C          -1.3860   -2.7441    5.2447 C.3     1  LIG1        0.0148
     28 C          -0.9119   -2.9506    2.7842 C.3     1  LIG1        0.0148
     29 C           1.0124    3.9814   -1.5475 C.3     1  LIG1       -0.0653
     30 O          -3.5585    8.6535    4.1355 O.3     1  LIG1       -0.4489
     31 C          -4.1293    8.2440    2.8809 C.3     1  LIG1        0.2334
     32 C          -1.9456    8.1294    7.9919 C.3     1  LIG1        0.0790
     33 C          -2.7311   -3.2493    5.7735 C.3     1  LIG1       -0.0374
     34 C          -1.9109   -3.4214    1.7216 C.3     1  LIG1       -0.0374
     35 C          -2.6755   -3.7040    7.2330 C.3     1  LIG1       -0.0545
     36 C          -2.9861   -4.3565    2.2699 C.3     1  LIG1       -0.0545
     37 C          -1.8818   -4.9861    7.4296 C.3     1  LIG1       -0.0652
     38 C          -3.8250   -4.9550    1.1513 C.3     1  LIG1       -0.0652
     39 H          -0.2485    3.8594    5.3396 H       1  LIG1        0.0424
     40 H          -0.3462    1.2217    4.2893 H       1  LIG1        0.0858
     41 H          -2.4039    3.4823    6.9914 H       1  LIG1        0.0409
     42 H          -2.9220    1.5270    3.4997 H       1  LIG1        0.2042
     43 H          -1.5794    3.6380    2.8628 H       1  LIG1        0.0325
     44 H          -1.4133    2.0530    2.1731 H       1  LIG1        0.0325
     45 H          -4.1703    2.5747    5.0142 H       1  LIG1        0.0821
     46 H          -3.4361    1.6084    6.3008 H       1  LIG1        0.0821
     47 H          -3.4657   -0.2935    4.9874 H       1  LIG1        0.0913
     48 H          -1.8139   -0.1253    5.6663 H       1  LIG1        0.0913
     49 H          -3.6749    4.3031    3.5337 H       1  LIG1        0.0658
     50 H          -1.7654    5.7022    7.1604 H       1  LIG1        0.0658
     51 H          -0.5892    4.1713    0.6738 H       1  LIG1        0.0270
     52 H          -0.2217    2.4947    0.3046 H       1  LIG1        0.0270
     53 H           1.3031    4.1775    3.9991 H       1  LIG1        0.0235
     54 H           0.3079    5.2006    2.9440 H       1  LIG1        0.0235
     55 H           1.9415    4.7152    2.4691 H       1  LIG1        0.0235
     56 H           1.6571    1.7519    3.4932 H       1  LIG1        0.0235
     57 H           2.4116    2.1924    1.9777 H       1  LIG1        0.0235
     58 H           1.0632    1.0444    1.9809 H       1  LIG1        0.0235
     59 H           2.2138    3.1294    0.0005 H       1  LIG1        0.0263
     60 H           1.7667    4.8176    0.2695 H       1  LIG1        0.0263
     61 H          -0.9759   -1.9824    5.9140 H       1  LIG1        0.0464
     62 H          -0.6551   -3.5593    5.2347 H       1  LIG1        0.0464
     63 H          -0.3731   -3.8173    3.1828 H       1  LIG1        0.0464
     64 H          -0.1616   -2.3132    2.2994 H       1  LIG1        0.0464
     65 H           0.6769    3.0214   -1.9532 H       1  LIG1        0.0230
     66 H           1.8742    4.3139   -2.1346 H       1  LIG1        0.0230
     67 H           0.2075    4.7112   -1.6812 H       1  LIG1        0.0230
     68 H          -5.1434    8.6524    2.8048 H       1  LIG1        0.1166
     69 H          -3.5228    8.6566    2.0661 H       1  LIG1        0.1166
     70 H          -1.8896    9.1054    8.4839 H       1  LIG1        0.0660
     71 H          -0.9638    7.6540    8.0797 H       1  LIG1        0.0660
     72 H          -2.7159    7.5431    8.5052 H       1  LIG1        0.0660
     73 H          -3.0894   -4.0763    5.1518 H       1  LIG1        0.0280
     74 H          -3.4848   -2.4592    5.6926 H       1  LIG1        0.0280
     75 H          -1.3449   -3.9429    0.9390 H       1  LIG1        0.0280
     76 H          -2.3919   -2.5654    1.2360 H       1  LIG1        0.0280
     77 H          -3.7008   -3.8757    7.5824 H       1  LIG1        0.0263
     78 H          -2.2559   -2.9092    7.8603 H       1  LIG1        0.0263
     79 H          -3.6485   -3.8034    2.9436 H       1  LIG1        0.0263
     80 H          -2.5244   -5.1667    2.8456 H       1  LIG1        0.0263
     81 H          -2.2779   -5.7916    6.8028 H       1  LIG1        0.0230
     82 H          -1.9439   -5.3099    8.4735 H       1  LIG1        0.0230
     83 H          -0.8250   -4.8459    7.1858 H       1  LIG1        0.0230
     84 H          -4.3163   -4.1707    0.5668 H       1  LIG1        0.0230
     85 H          -4.6001   -5.6066    1.5665 H       1  LIG1        0.0230
     86 H          -3.2063   -5.5525    0.4741 H       1  LIG1        0.0230
@<TRIPOS>BOND
     1     1     2    1
     2     1     3    1
     3     1     4    1
     4     2     5    1
     5     2     6    1
     6     3     8    1
     7     3     7    1
     8     4    10   ar
     9     4     9   ar
    10     5     8    1
    11     5    11    1
    12     6    12    1
    13     7    14   ar
    14     7    13   ar
    15    11    15    1
    16    12    18    1
    17    12    17    1
    18    12    16    1
    19    13    19   ar
    20    14    20   ar
    21    15    22    2
    22    15    21   am
    23    16    23    1
    24    19    25    1
    25    19    24   ar
    26    20    24   ar
    27    20    26    1
    28    21    28    1
    29    21    27    1
    30    23    29    1
    31    24    30    1
    32    25    31    1
    33    26    32    1
    34    27    33    1
    35    28    34    1
    36    30    31    1
    37    33    35    1
    38    34    36    1
    39    35    37    1
    40    36    38    1
    41     1    39    1
    42     2    40    1
    43     3    41    1
    44     5    42    1
    45     6    43    1
    46     6    44    1
    47     8    45    1
    48     8    46    1
    49    11    47    1
    50    11    48    1
    51    13    49    1
    52    14    50    1
    53    16    51    1
    54    16    52    1
    55    17    53    1
    56    17    54    1
    57    17    55    1
    58    18    56    1
    59    18    57    1
    60    18    58    1
    61    23    59    1
    62    23    60    1
    63    27    61    1
    64    27    62    1
    65    28    63    1
    66    28    64    1
    67    29    65    1
    68    29    66    1
    69    29    67    1
    70    31    68    1
    71    31    69    1
    72    32    70    1
    73    32    71    1
    74    32    72    1
    75    33    73    1
    76    33    74    1
    77    34    75    1
    78    34    76    1
    79    35    77    1
    80    35    78    1
    81    36    79    1
    82    36    80    1
    83    37    81    1
    84    37    82    1
    85    37    83    1
    86    38    84    1
    87    38    85    1
    88    38    86    1
@<TRIPOS>MOLECULE
01012527H
 86 88 0 0 0
SMALL
GASTEIGER

@<TRIPOS>ATOM
      1 C          -0.9655    3.0603    5.4022 C.3     1  LIG1        0.0531
      2 C          -1.1346    2.0870    4.2418 C.3     1  LIG1       -0.0111
      3 C          -2.3210    3.2705    6.0632 C.3     1  LIG1        0.0375
      4 C          -0.0278    2.2291    6.2709 C.2     1  LIG1        0.0509
      5 N          -2.5464    1.4890    4.4337 N.4     1  LIG1        0.2448
      6 C          -1.0998    2.6935    2.8198 C.3     1  LIG1       -0.0039
      7 C          -2.9762    4.5751    5.6230 C.ar    1  LIG1       -0.0313
      8 C          -3.0967    1.9941    5.7584 C.3     1  LIG1       -0.0234
      9 O          -0.5830    1.3104    6.9327 O.co2   1  LIG1       -0.5493
     10 O           1.1916    2.4910    6.1168 O.co2   1  LIG1       -0.5493
     11 C          -2.5450   -0.0363    4.3541 C.3     1  LIG1        0.0465
     12 C           0.2895    3.0332    2.1903 C.3     1  LIG1       -0.0298
     13 C          -2.7636    5.7189    6.4109 C.ar    1  LIG1       -0.0122
     14 C          -3.7676    4.7037    4.4608 C.ar    1  LIG1       -0.0124
     15 C          -3.9689   -0.6099    4.3128 C.2     1  LIG1        0.2608
     16 C           0.1091    3.3041    0.6595 C.3     1  LIG1       -0.0479
     17 C           0.8639    4.3267    2.8041 C.3     1  LIG1       -0.0596
     18 C           1.3118    1.9034    2.4057 C.3     1  LIG1       -0.0596
     19 C          -3.3546    6.9086    6.0299 C.ar    1  LIG1        0.1702
     20 C          -4.3323    5.9315    4.0701 C.ar    1  LIG1        0.1656
     21 N          -4.1378   -1.9923    4.3000 N.am    1  LIG1       -0.2971
     22 O          -4.9253    0.1729    4.2777 O.2     1  LIG1       -0.2697
     23 C          -0.2251    2.0819   -0.2087 C.3     1  LIG1       -0.0554
     24 C          -4.1196    7.0221    4.8908 C.ar    1  LIG1        0.2075
     25 O          -3.2556    8.0769    6.7214 O.3     1  LIG1       -0.4525
     26 O          -5.0409    5.8748    2.9046 O.3     1  LIG1       -0.4913
     27 C          -3.0274   -2.9616    4.2595 C.3     1  LIG1        0.0148
     28 C          -5.5031   -2.5122    4.4700 C.3     1  LIG1        0.0148
     29 C          -0.3817    2.4691   -1.6724 C.3     1  LIG1       -0.0653
     30 O          -4.5953    8.2903    4.7380 O.3     1  LIG1       -0.4489
     31 C          -4.0717    8.9397    5.9120 C.3     1  LIG1        0.2334
     32 C          -5.4520    7.1158    2.3419 C.3     1  LIG1        0.0790
     33 C          -3.1338   -3.9486    3.0955 C.3     1  LIG1       -0.0374
     34 C          -6.2569   -2.8290    3.1714 C.3     1  LIG1       -0.0374
     35 C          -1.8466   -4.7437    2.8872 C.3     1  LIG1       -0.0545
     36 C          -6.3833   -1.6506    2.2071 C.3     1  LIG1       -0.0545
     37 C          -2.0061   -5.7543    1.7598 C.3     1  LIG1       -0.0652
     38 C          -7.1568   -2.0403    0.9567 C.3     1  LIG1       -0.0652
     39 H          -0.4820    4.0027    5.1397 H       1  LIG1        0.0424
     40 H          -0.4497    1.2311    4.2630 H       1  LIG1        0.0858
     41 H          -2.2222    3.3325    7.1561 H       1  LIG1        0.0409
     42 H          -3.1940    1.8169    3.7096 H       1  LIG1        0.2042
     43 H          -1.7326    3.5880    2.7817 H       1  LIG1        0.0325
     44 H          -1.5894    1.9655    2.1627 H       1  LIG1        0.0325
     45 H          -4.1736    2.1521    5.6468 H       1  LIG1        0.0821
     46 H          -2.9372    1.2194    6.5145 H       1  LIG1        0.0821
     47 H          -1.9938   -0.4155    5.2189 H       1  LIG1        0.0913
     48 H          -2.0404   -0.2922    3.4173 H       1  LIG1        0.0913
     49 H          -2.1553    5.6842    7.3111 H       1  LIG1        0.0658
     50 H          -3.9624    3.8519    3.8184 H       1  LIG1        0.0658
     51 H           1.0344    3.7460    0.2644 H       1  LIG1        0.0270
     52 H          -0.6719    4.0642    0.5223 H       1  LIG1        0.0270
     53 H           1.1888    4.1815    3.8372 H       1  LIG1        0.0235
     54 H           0.1277    5.1380    2.7844 H       1  LIG1        0.0235
     55 H           1.7465    4.6692    2.2506 H       1  LIG1        0.0235
     56 H           1.6247    1.8345    3.4523 H       1  LIG1        0.0235
     57 H           2.2179    2.0755    1.8138 H       1  LIG1        0.0235
     58 H           0.9016    0.9288    2.1215 H       1  LIG1        0.0235
     59 H          -1.1517    1.6053    0.1231 H       1  LIG1        0.0263
     60 H           0.5717    1.3344   -0.1362 H       1  LIG1        0.0263
     61 H          -3.0242   -3.4977    5.2160 H       1  LIG1        0.0464
     62 H          -2.0727   -2.4361    4.1896 H       1  LIG1        0.0464
     63 H          -6.0894   -1.7867    5.0465 H       1  LIG1        0.0464
     64 H          -5.4452   -3.4144    5.0903 H       1  LIG1        0.0464
     65 H          -1.1969    3.1874   -1.8035 H       1  LIG1        0.0230
     66 H          -0.6086    1.5837   -2.2747 H       1  LIG1        0.0230
     67 H           0.5391    2.9161   -2.0611 H       1  LIG1        0.0230
     68 H          -3.4717    9.8017    5.5981 H       1  LIG1        0.1166
     69 H          -4.9121    9.2998    6.5170 H       1  LIG1        0.1166
     70 H          -5.8814    6.9055    1.3571 H       1  LIG1        0.0660
     71 H          -4.6018    7.7896    2.1894 H       1  LIG1        0.0660
     72 H          -6.2346    7.5807    2.9482 H       1  LIG1        0.0660
     73 H          -3.3767   -3.4076    2.1729 H       1  LIG1        0.0280
     74 H          -3.9513   -4.6517    3.2892 H       1  LIG1        0.0280
     75 H          -7.2620   -3.1758    3.4438 H       1  LIG1        0.0280
     76 H          -5.7843   -3.6656    2.6490 H       1  LIG1        0.0280
     77 H          -1.5768   -5.2693    3.8094 H       1  LIG1        0.0263
     78 H          -1.0225   -4.0623    2.6449 H       1  LIG1        0.0263
     79 H          -5.3910   -1.2998    1.9040 H       1  LIG1        0.0263
     80 H          -6.8961   -0.8175    2.7004 H       1  LIG1        0.0263
     81 H          -2.7948   -6.4782    1.9921 H       1  LIG1        0.0230
     82 H          -1.0734   -6.3062    1.6079 H       1  LIG1        0.0230
     83 H          -2.2648   -5.2571    0.8199 H       1  LIG1        0.0230
     84 H          -6.6539   -2.8532    0.4230 H       1  LIG1        0.0230
     85 H          -7.2336   -1.1854    0.2773 H       1  LIG1        0.0230
     86 H          -8.1703   -2.3683    1.2076 H       1  LIG1        0.0230
@<TRIPOS>BOND
     1     1     2    1
     2     1     3    1
     3     1     4    1
     4     2     5    1
     5     2     6    1
     6     3     8    1
     7     3     7    1
     8     4    10   ar
     9     4     9   ar
    10     5     8    1
    11     5    11    1
    12     6    12    1
    13     7    14   ar
    14     7    13   ar
    15    11    15    1
    16    12    18    1
    17    12    17    1
    18    12    16    1
    19    13    19   ar
    20    14    20   ar
    21    15    22    2
    22    15    21   am
    23    16    23    1
    24    19    25    1
    25    19    24   ar
    26    20    24   ar
    27    20    26    1
    28    21    28    1
    29    21    27    1
    30    23    29    1
    31    24    30    1
    32    25    31    1
    33    26    32    1
    34    27    33    1
    35    28    34    1
    36    30    31    1
    37    33    35    1
    38    34    36    1
    39    35    37    1
    40    36    38    1
    41     1    39    1
    42     2    40    1
    43     3    41    1
    44     5    42    1
    45     6    43    1
    46     6    44    1
    47     8    45    1
    48     8    46    1
    49    11    47    1
    50    11    48    1
    51    13    49    1
    52    14    50    1
    53    16    51    1
    54    16    52    1
    55    17    53    1
    56    17    54    1
    57    17    55    1
    58    18    56    1
    59    18    57    1
    60    18    58    1
    61    23    59    1
    62    23    60    1
    63    27    61    1
    64    27    62    1
    65    28    63    1
    66    28    64    1
    67    29    65    1
    68    29    66    1
    69    29    67    1
    70    31    68    1
    71    31    69    1
    72    32    70    1
    73    32    71    1
    74    32    72    1
    75    33    73    1
    76    33    74    1
    77    34    75    1
    78    34    76    1
    79    35    77    1
    80    35    78    1
    81    36    79    1
    82    36    80    1
    83    37    81    1
    84    37    82    1
    85    37    83    1
    86    38    84    1
    87    38    85    1
    88    38    86    1
@<TRIPOS>MOLECULE
01012527H
 86 88 0 0 0
SMALL
GASTEIGER

@<TRIPOS>ATOM
      1 C          -0.8093    3.0424    5.4856 C.3     1  LIG1        0.0531
      2 C          -1.0661    2.1101    4.3103 C.3     1  LIG1       -0.0111
      3 C          -2.1505    3.4376    6.0875 C.3     1  LIG1        0.0375
      4 C          -0.0120    2.0967    6.3765 C.2     1  LIG1        0.0509
      5 N          -2.5045    1.5829    4.5454 N.4     1  LIG1        0.2448
      6 C          -1.0574    2.7262    2.8927 C.3     1  LIG1       -0.0039
      7 C          -2.6086    4.8050    5.5938 C.ar    1  LIG1       -0.0313
      8 C          -3.0666    2.2554    5.7928 C.3     1  LIG1       -0.0234
      9 O           1.2190    2.0692    6.1297 O.co2   1  LIG1       -0.5493
     10 O          -0.6989    1.3740    7.1495 O.co2   1  LIG1       -0.5493
     11 C          -2.5197    0.0547    4.6638 C.3     1  LIG1        0.0465
     12 C           0.3022    3.1089    2.2342 C.3     1  LIG1       -0.0298
     13 C          -3.3603    5.0016    4.4278 C.ar    1  LIG1       -0.0122
     14 C          -2.2039    5.9427    6.3453 C.ar    1  LIG1       -0.0124
     15 C          -3.9377   -0.5284    4.7408 C.2     1  LIG1        0.2608
     16 C           0.0924    3.2948    0.6953 C.3     1  LIG1       -0.0479
     17 C           0.8759    4.4080    2.8261 C.3     1  LIG1       -0.0596
     18 C           1.3454    1.9881    2.4106 C.3     1  LIG1       -0.0596
     19 C          -3.6241    6.2970    4.0292 C.ar    1  LIG1        0.1702
     20 C          -2.5330    7.2458    5.9507 C.ar    1  LIG1        0.1656
     21 N          -4.1168   -1.8885    4.5082 N.am    1  LIG1       -0.2971
     22 O          -4.8881    0.2220    4.9837 O.2     1  LIG1       -0.2697
     23 C          -0.9464    4.3452    0.2838 C.3     1  LIG1       -0.0554
     24 C          -3.2215    7.3882    4.7621 C.ar    1  LIG1        0.2075
     25 O          -4.2860    6.6446    2.8917 O.3     1  LIG1       -0.4525
     26 O          -2.2035    8.3866    6.6221 O.3     1  LIG1       -0.4913
     27 C          -3.0622   -2.8146    4.0760 C.3     1  LIG1        0.0148
     28 C          -5.4753   -2.4349    4.6144 C.3     1  LIG1        0.0148
     29 C          -1.0374    4.4610   -1.2317 C.3     1  LIG1       -0.0653
     30 O          -3.5936    8.5610    4.1755 O.3     1  LIG1       -0.4489
     31 C          -4.2092    8.0842    2.9661 C.3     1  LIG1        0.2334
     32 C          -1.8997    8.2346    8.0040 C.3     1  LIG1        0.0790
     33 C          -2.0688   -3.2118    5.1715 C.3     1  LIG1       -0.0374
     34 C          -6.2403   -2.4385    3.2840 C.3     1  LIG1       -0.0374
     35 C          -2.7233   -3.8730    6.3836 C.3     1  LIG1       -0.0545
     36 C          -6.6496   -1.0402    2.8141 C.3     1  LIG1       -0.0545
     37 C          -1.6836   -4.2583    7.4257 C.3     1  LIG1       -0.0652
     38 C          -7.5525   -1.0926    1.5922 C.3     1  LIG1       -0.0652
     39 H          -0.1858    3.9067    5.2535 H       1  LIG1        0.0424
     40 H          -0.4224    1.2228    4.2869 H       1  LIG1        0.0858
     41 H          -2.0843    3.5208    7.1814 H       1  LIG1        0.0409
     42 H          -3.1280    1.8315    3.7721 H       1  LIG1        0.2042
     43 H          -1.7104    3.6013    2.8744 H       1  LIG1        0.0325
     44 H          -1.5338    1.9908    2.2270 H       1  LIG1        0.0325
     45 H          -4.1011    2.5441    5.5833 H       1  LIG1        0.0821
     46 H          -3.0666    1.5263    6.6091 H       1  LIG1        0.0821
     47 H          -1.9573   -0.2150    5.5589 H       1  LIG1        0.0913
     48 H          -2.0227   -0.3087    3.7617 H       1  LIG1        0.0913
     49 H          -3.7171    4.1868    3.8117 H       1  LIG1        0.0658
     50 H          -1.6066    5.7808    7.2406 H       1  LIG1        0.0658
     51 H          -0.1994    2.3301    0.2575 H       1  LIG1        0.0270
     52 H           1.0541    3.5553    0.2320 H       1  LIG1        0.0270
     53 H           1.3202    4.2437    3.8117 H       1  LIG1        0.0235
     54 H           0.1073    5.1817    2.9262 H       1  LIG1        0.0235
     55 H           1.6730    4.8119    2.1911 H       1  LIG1        0.0235
     56 H           1.6338    1.8604    3.4577 H       1  LIG1        0.0235
     57 H           2.2625    2.2126    1.8534 H       1  LIG1        0.0235
     58 H           0.9609    1.0291    2.0463 H       1  LIG1        0.0235
     59 H          -0.6874    5.3249    0.6976 H       1  LIG1        0.0263
     60 H          -1.9361    4.0763    0.6670 H       1  LIG1        0.0263
     61 H          -2.5177   -2.3455    3.2496 H       1  LIG1        0.0464
     62 H          -3.5299   -3.7152    3.6613 H       1  LIG1        0.0464
     63 H          -6.0412   -1.8707    5.3651 H       1  LIG1        0.0464
     64 H          -5.3969   -3.4603    4.9940 H       1  LIG1        0.0464
     65 H          -0.0797    4.7739   -1.6597 H       1  LIG1        0.0230
     66 H          -1.7928    5.2022   -1.5105 H       1  LIG1        0.0230
     67 H          -1.3192    3.5037   -1.6822 H       1  LIG1        0.0230
     68 H          -5.2236    8.4929    2.9021 H       1  LIG1        0.1166
     69 H          -3.6295    8.4485    2.1092 H       1  LIG1        0.1166
     70 H          -1.8630    9.2330    8.4507 H       1  LIG1        0.0660
     71 H          -0.9170    7.7718    8.1388 H       1  LIG1        0.0660
     72 H          -2.6775    7.6661    8.5265 H       1  LIG1        0.0660
     73 H          -1.4953   -2.3417    5.5032 H       1  LIG1        0.0280
     74 H          -1.3403   -3.9060    4.7336 H       1  LIG1        0.0280
     75 H          -7.1458   -3.0433    3.4172 H       1  LIG1        0.0280
     76 H          -5.6421   -2.9260    2.5051 H       1  LIG1        0.0280
     77 H          -3.2710   -4.7687    6.0698 H       1  LIG1        0.0263
     78 H          -3.4453   -3.1904    6.8449 H       1  LIG1        0.0263
     79 H          -5.7606   -0.4520    2.5624 H       1  LIG1        0.0263
     80 H          -7.1773   -0.5157    3.6192 H       1  LIG1        0.0263
     81 H          -0.9570   -4.9660    7.0137 H       1  LIG1        0.0230
     82 H          -2.1659   -4.7286    8.2882 H       1  LIG1        0.0230
     83 H          -1.1398   -3.3765    7.7805 H       1  LIG1        0.0230
     84 H          -7.0487   -1.5806    0.7524 H       1  LIG1        0.0230
     85 H          -7.8257   -0.0786    1.2828 H       1  LIG1        0.0230
     86 H          -8.4750   -1.6400    1.8090 H       1  LIG1        0.0230
@<TRIPOS>BOND
     1     1     2    1
     2     1     3    1
     3     1     4    1
     4     2     5    1
     5     2     6    1
     6     3     8    1
     7     3     7    1
     8     4    10   ar
     9     4     9   ar
    10     5     8    1
    11     5    11    1
    12     6    12    1
    13     7    14   ar
    14     7    13   ar
    15    11    15    1
    16    12    18    1
    17    12    17    1
    18    12    16    1
    19    13    19   ar
    20    14    20   ar
    21    15    22    2
    22    15    21   am
    23    16    23    1
    24    19    25    1
    25    19    24   ar
    26    20    24   ar
    27    20    26    1
    28    21    28    1
    29    21    27    1
    30    23    29    1
    31    24    30    1
    32    25    31    1
    33    26    32    1
    34    27    33    1
    35    28    34    1
    36    30    31    1
    37    33    35    1
    38    34    36    1
    39    35    37    1
    40    36    38    1
    41     1    39    1
    42     2    40    1
    43     3    41    1
    44     5    42    1
    45     6    43    1
    46     6    44    1
    47     8    45    1
    48     8    46    1
    49    11    47    1
    50    11    48    1
    51    13    49    1
    52    14    50    1
    53    16    51    1
    54    16    52    1
    55    17    53    1
    56    17    54    1
    57    17    55    1
    58    18    56    1
    59    18    57    1
    60    18    58    1
    61    23    59    1
    62    23    60    1
    63    27    61    1
    64    27    62    1
    65    28    63    1
    66    28    64    1
    67    29    65    1
    68    29    66    1
    69    29    67    1
    70    31    68    1
    71    31    69    1
    72    32    70    1
    73    32    71    1
    74    32    72    1
    75    33    73    1
    76    33    74    1
    77    34    75    1
    78    34    76    1
    79    35    77    1
    80    35    78    1
    81    36    79    1
    82    36    80    1
    83    37    81    1
    84    37    82    1
    85    37    83    1
    86    38    84    1
    87    38    85    1
    88    38    86    1
@<TRIPOS>MOLECULE
01012527H
 86 88 0 0 0
SMALL
GASTEIGER

@<TRIPOS>ATOM
      1 C          -0.8733    3.0331    5.4824 C.3     1  LIG1        0.0531
      2 C          -1.0627    2.1342    4.2686 C.3     1  LIG1       -0.0111
      3 C          -2.2468    3.3860    6.0367 C.3     1  LIG1        0.0375
      4 C          -0.0949    2.0719    6.3721 C.2     1  LIG1        0.0509
      5 N          -2.5055    1.5877    4.4170 N.4     1  LIG1        0.2448
      6 C          -0.9862    2.7924    2.8725 C.3     1  LIG1       -0.0039
      7 C          -2.6964    4.7626    5.5602 C.ar    1  LIG1       -0.0313
      8 C          -3.1281    2.1980    5.6640 C.3     1  LIG1       -0.0234
      9 O           1.1463    2.0760    6.1761 O.co2   1  LIG1       -0.5493
     10 O          -0.7987    1.3088    7.0876 O.co2   1  LIG1       -0.5493
     11 C          -2.5091    0.0597    4.4652 C.3     1  LIG1        0.0465
     12 C           0.4139    3.1254    2.2534 C.3     1  LIG1       -0.0298
     13 C          -3.4227    4.9800    4.3821 C.ar    1  LIG1       -0.0122
     14 C          -2.3032    5.8869    6.3394 C.ar    1  LIG1       -0.0124
     15 C          -3.9200   -0.5428    4.4169 C.2     1  LIG1        0.2608
     16 C           0.1523    3.4240    0.7389 C.3     1  LIG1       -0.0479
     17 C           1.0394    4.3540    2.9324 C.3     1  LIG1       -0.0596
     18 C           1.3787    1.9346    2.3917 C.3     1  LIG1       -0.0596
     19 C          -3.6821    6.2828    4.0051 C.ar    1  LIG1        0.1702
     20 C          -2.6182    7.1978    5.9598 C.ar    1  LIG1        0.1656
     21 N          -4.0277   -1.9306    4.4099 N.am    1  LIG1       -0.2971
     22 O          -4.9044    0.2014    4.3755 O.2     1  LIG1       -0.2697
     23 C           1.3608    3.8376   -0.1094 C.3     1  LIG1       -0.0554
     24 C          -3.2912    7.3605    4.7644 C.ar    1  LIG1        0.2075
     25 O          -4.3250    6.6519    2.8633 O.3     1  LIG1       -0.4525
     26 O          -2.2947    8.3297    6.6489 O.3     1  LIG1       -0.4913
     27 C          -2.8902   -2.8410    4.2217 C.3     1  LIG1        0.0148
     28 C          -5.3628   -2.5305    4.4757 C.3     1  LIG1        0.0148
     29 C           0.9765    3.9779   -1.5768 C.3     1  LIG1       -0.0653
     30 O          -3.6523    8.5442    4.1927 O.3     1  LIG1       -0.4489
     31 C          -4.2555    8.0898    2.9686 C.3     1  LIG1        0.2334
     32 C          -1.9101    8.1584    8.0076 C.3     1  LIG1        0.0790
     33 C          -2.6115   -3.0712    2.7334 C.3     1  LIG1       -0.0374
     34 C          -5.9119   -2.5945    5.9059 C.3     1  LIG1       -0.0374
     35 C          -1.4478   -4.0268    2.4697 C.3     1  LIG1       -0.0545
     36 C          -5.1073   -3.5238    6.8174 C.3     1  LIG1       -0.0545
     37 C          -0.1086   -3.5018    2.9642 C.3     1  LIG1       -0.0652
     38 C          -5.7284   -3.6265    8.2017 C.3     1  LIG1       -0.0652
     39 H          -0.2582    3.9161    5.3027 H       1  LIG1        0.0424
     40 H          -0.4142    1.2512    4.2543 H       1  LIG1        0.0858
     41 H          -2.2313    3.4384    7.1343 H       1  LIG1        0.0409
     42 H          -3.0994    1.8617    3.6278 H       1  LIG1        0.2042
     43 H          -1.5958    3.7009    2.8539 H       1  LIG1        0.0325
     44 H          -1.4787    2.0989    2.1744 H       1  LIG1        0.0325
     45 H          -4.1617    2.4695    5.4281 H       1  LIG1        0.0821
     46 H          -3.1433    1.4367    6.4503 H       1  LIG1        0.0821
     47 H          -1.9944   -0.2513    5.3776 H       1  LIG1        0.0913
     48 H          -1.9593   -0.2651    3.5775 H       1  LIG1        0.0913
     49 H          -3.7615    4.1768    3.7408 H       1  LIG1        0.0658
     50 H          -1.7246    5.7059    7.2433 H       1  LIG1        0.0658
     51 H          -0.6060    4.2153    0.6604 H       1  LIG1        0.0270
     52 H          -0.2931    2.5301    0.2801 H       1  LIG1        0.0270
     53 H           1.3240    4.1427    3.9659 H       1  LIG1        0.0235
     54 H           0.3479    5.2036    2.9308 H       1  LIG1        0.0235
     55 H           1.9597    4.6710    2.4321 H       1  LIG1        0.0235
     56 H           1.5927    1.7073    3.4403 H       1  LIG1        0.0235
     57 H           2.3466    2.1393    1.9237 H       1  LIG1        0.0235
     58 H           0.9634    1.0334    1.9279 H       1  LIG1        0.0235
     59 H           2.1630    3.0977   -0.0343 H       1  LIG1        0.0263
     60 H           1.7596    4.7965    0.2360 H       1  LIG1        0.0263
     61 H          -3.1086   -3.7909    4.7216 H       1  LIG1        0.0464
     62 H          -2.0123   -2.4169    4.7148 H       1  LIG1        0.0464
     63 H          -5.3362   -3.5300    4.0269 H       1  LIG1        0.0464
     64 H          -6.0446   -1.9269    3.8650 H       1  LIG1        0.0464
     65 H           0.6176    3.0254   -1.9803 H       1  LIG1        0.0230
     66 H           1.8436    4.2900   -2.1673 H       1  LIG1        0.0230
     67 H           0.1881    4.7260   -1.7075 H       1  LIG1        0.0230
     68 H          -5.2713    8.4952    2.9044 H       1  LIG1        0.1166
     69 H          -3.6704    8.4744    2.1245 H       1  LIG1        0.1166
     70 H          -1.8458    9.1506    8.4647 H       1  LIG1        0.0660
     71 H          -0.9219    7.6934    8.0788 H       1  LIG1        0.0660
     72 H          -2.6579    7.5840    8.5656 H       1  LIG1        0.0660
     73 H          -2.4180   -2.1153    2.2323 H       1  LIG1        0.0280
     74 H          -3.5113   -3.4824    2.2587 H       1  LIG1        0.0280
     75 H          -6.9494   -2.9474    5.8604 H       1  LIG1        0.0280
     76 H          -5.9361   -1.5888    6.3428 H       1  LIG1        0.0280
     77 H          -1.3776   -4.1948    1.3883 H       1  LIG1        0.0263
     78 H          -1.6518   -5.0005    2.9293 H       1  LIG1        0.0263
     79 H          -4.0811   -3.1547    6.9229 H       1  LIG1        0.0263
     80 H          -5.0519   -4.5247    6.3739 H       1  LIG1        0.0263
     81 H           0.0912   -2.4990    2.5732 H       1  LIG1        0.0230
     82 H           0.6990   -4.1624    2.6330 H       1  LIG1        0.0230
     83 H          -0.0739   -3.4610    4.0568 H       1  LIG1        0.0230
     84 H          -5.7695   -2.6460    8.6867 H       1  LIG1        0.0230
     85 H          -5.1338   -4.2931    8.8344 H       1  LIG1        0.0230
     86 H          -6.7453   -4.0277    8.1477 H       1  LIG1        0.0230
@<TRIPOS>BOND
     1     1     2    1
     2     1     3    1
     3     1     4    1
     4     2     5    1
     5     2     6    1
     6     3     8    1
     7     3     7    1
     8     4    10   ar
     9     4     9   ar
    10     5     8    1
    11     5    11    1
    12     6    12    1
    13     7    14   ar
    14     7    13   ar
    15    11    15    1
    16    12    18    1
    17    12    17    1
    18    12    16    1
    19    13    19   ar
    20    14    20   ar
    21    15    22    2
    22    15    21   am
    23    16    23    1
    24    19    25    1
    25    19    24   ar
    26    20    24   ar
    27    20    26    1
    28    21    28    1
    29    21    27    1
    30    23    29    1
    31    24    30    1
    32    25    31    1
    33    26    32    1
    34    27    33    1
    35    28    34    1
    36    30    31    1
    37    33    35    1
    38    34    36    1
    39    35    37    1
    40    36    38    1
    41     1    39    1
    42     2    40    1
    43     3    41    1
    44     5    42    1
    45     6    43    1
    46     6    44    1
    47     8    45    1
    48     8    46    1
    49    11    47    1
    50    11    48    1
    51    13    49    1
    52    14    50    1
    53    16    51    1
    54    16    52    1
    55    17    53    1
    56    17    54    1
    57    17    55    1
    58    18    56    1
    59    18    57    1
    60    18    58    1
    61    23    59    1
    62    23    60    1
    63    27    61    1
    64    27    62    1
    65    28    63    1
    66    28    64    1
    67    29    65    1
    68    29    66    1
    69    29    67    1
    70    31    68    1
    71    31    69    1
    72    32    70    1
    73    32    71    1
    74    32    72    1
    75    33    73    1
    76    33    74    1
    77    34    75    1
    78    34    76    1
    79    35    77    1
    80    35    78    1
    81    36    79    1
    82    36    80    1
    83    37    81    1
    84    37    82    1
    85    37    83    1
    86    38    84    1
    87    38    85    1
    88    38    86    1
@<TRIPOS>MOLECULE
01012527H
 86 88 0 0 0
SMALL
GASTEIGER

@<TRIPOS>ATOM
      1 C          -0.9771    3.1205    5.4526 C.3     1  LIG1        0.0531
      2 C          -1.1399    2.1221    4.3158 C.3     1  LIG1       -0.0111
      3 C          -2.3371    3.3639    6.0870 C.3     1  LIG1        0.0375
      4 C          -0.0626    2.2936    6.3496 C.2     1  LIG1        0.0509
      5 N          -2.5490    1.5134    4.5293 N.4     1  LIG1        0.2448
      6 C          -1.1148    2.6801    2.8725 C.3     1  LIG1       -0.0039
      7 C          -2.9735    4.6666    5.6175 C.ar    1  LIG1       -0.0313
      8 C          -3.1306    2.0899    5.8093 C.3     1  LIG1       -0.0234
      9 O          -0.6458    1.4281    7.0617 O.co2   1  LIG1       -0.5493
     10 O           1.1634    2.4899    6.1644 O.co2   1  LIG1       -0.5493
     11 C          -2.5026   -0.0150    4.5524 C.3     1  LIG1        0.0465
     12 C           0.2642    3.0451    2.2333 C.3     1  LIG1       -0.0298
     13 C          -2.7702    5.8177    6.3979 C.ar    1  LIG1       -0.0122
     14 C          -3.7579    4.7822    4.4489 C.ar    1  LIG1       -0.0124
     15 C          -3.8972   -0.6524    4.4207 C.2     1  LIG1        0.2608
     16 C           0.0778    3.2733    0.6952 C.3     1  LIG1       -0.0479
     17 C           0.7990    4.3703    2.8147 C.3     1  LIG1       -0.0596
     18 C           1.3204    1.9521    2.4746 C.3     1  LIG1       -0.0596
     19 C          -3.3834    6.9954    6.0197 C.ar    1  LIG1        0.1702
     20 C          -4.3377    6.0020    4.0558 C.ar    1  LIG1        0.1656
     21 N          -3.9813   -2.0336    4.2082 N.am    1  LIG1       -0.2971
     22 O          -4.9018    0.0648    4.4879 O.2     1  LIG1       -0.2697
     23 C          -0.2264    2.0240   -0.1451 C.3     1  LIG1       -0.0554
     24 C          -4.1527    7.0939    4.8813 C.ar    1  LIG1        0.2075
     25 O          -3.3190    8.1612    6.7180 O.3     1  LIG1       -0.4525
     26 O          -5.0465    5.9385    2.8900 O.3     1  LIG1       -0.4913
     27 C          -5.3283   -2.6227    4.1071 C.3     1  LIG1        0.0148
     28 C          -2.8408   -2.8216    3.7168 C.3     1  LIG1        0.0148
     29 C          -0.3758    2.3724   -1.6194 C.3     1  LIG1       -0.0653
     30 O          -4.6696    8.3477    4.7408 O.3     1  LIG1       -0.4489
     31 C          -4.2092    8.9854    5.9475 C.3     1  LIG1        0.2334
     32 C          -5.3939    7.1811    2.2883 C.3     1  LIG1        0.0790
     33 C          -5.4360   -4.0891    4.5391 C.3     1  LIG1       -0.0374
     34 C          -2.0258   -3.4333    4.8551 C.3     1  LIG1       -0.0374
     35 C          -6.8611   -4.6175    4.3634 C.3     1  LIG1       -0.0545
     36 C          -0.8016   -4.2051    4.3590 C.3     1  LIG1       -0.0545
     37 C          -6.9350   -6.1158    4.6154 C.3     1  LIG1       -0.0652
     38 C           0.2604   -3.3106    3.7355 C.3     1  LIG1       -0.0652
     39 H          -0.4724    4.0486    5.1794 H       1  LIG1        0.0424
     40 H          -0.4435    1.2754    4.3546 H       1  LIG1        0.0858
     41 H          -2.2496    3.4502    7.1795 H       1  LIG1        0.0409
     42 H          -3.1887    1.7814    3.7744 H       1  LIG1        0.2042
     43 H          -1.7782    3.5483    2.7982 H       1  LIG1        0.0325
     44 H          -1.5736    1.9103    2.2406 H       1  LIG1        0.0325
     45 H          -4.1994    2.2611    5.6506 H       1  LIG1        0.0821
     46 H          -3.0146    1.3494    6.6068 H       1  LIG1        0.0821
     47 H          -2.0190   -0.3297    5.4794 H       1  LIG1        0.0913
     48 H          -1.8962   -0.2861    3.6871 H       1  LIG1        0.0913
     49 H          -2.1638    5.7925    7.3003 H       1  LIG1        0.0658
     50 H          -3.9387    3.9237    3.8103 H       1  LIG1        0.0658
     51 H           0.9927    3.7273    0.2900 H       1  LIG1        0.0270
     52 H          -0.7208    4.0112    0.5395 H       1  LIG1        0.0270
     53 H           1.1507    4.2538    3.8425 H       1  LIG1        0.0235
     54 H           0.0304    5.1508    2.7975 H       1  LIG1        0.0235
     55 H           1.6554    4.7387    2.2380 H       1  LIG1        0.0235
     56 H           1.6295    1.9125    3.5233 H       1  LIG1        0.0235
     57 H           2.2236    2.1428    1.8839 H       1  LIG1        0.0235
     58 H           0.9438    0.9602    2.2066 H       1  LIG1        0.0235
     59 H          -1.1481    1.5402    0.1908 H       1  LIG1        0.0263
     60 H           0.5823    1.2926   -0.0479 H       1  LIG1        0.0263
     61 H          -5.6360   -2.5142    3.0621 H       1  LIG1        0.0464
     62 H          -6.0227   -2.0285    4.7104 H       1  LIG1        0.0464
     63 H          -2.2164   -2.1787    3.0958 H       1  LIG1        0.0464
     64 H          -3.2043   -3.5971    3.0361 H       1  LIG1        0.0464
     65 H          -1.1990    3.0773   -1.7754 H       1  LIG1        0.0230
     66 H          -0.5869    1.4694   -2.2018 H       1  LIG1        0.0230
     67 H           0.5424    2.8212   -2.0124 H       1  LIG1        0.0230
     68 H          -3.6919    9.9141    5.6803 H       1  LIG1        0.1166
     69 H          -5.0804    9.2360    6.5656 H       1  LIG1        0.1166
     70 H          -5.7929    6.9654    1.2921 H       1  LIG1        0.0660
     71 H          -4.5163    7.8243    2.1567 H       1  LIG1        0.0660
     72 H          -6.1829    7.6842    2.8547 H       1  LIG1        0.0660
     73 H          -5.1303   -4.1917    5.5877 H       1  LIG1        0.0280
     74 H          -4.7601   -4.7177    3.9489 H       1  LIG1        0.0280
     75 H          -2.6604   -4.1209    5.4273 H       1  LIG1        0.0280
     76 H          -1.7073   -2.6584    5.5617 H       1  LIG1        0.0280
     77 H          -7.2127   -4.4131    3.3446 H       1  LIG1        0.0263
     78 H          -7.5384   -4.0977    5.0513 H       1  LIG1        0.0263
     79 H          -1.1076   -4.9697    3.6358 H       1  LIG1        0.0263
     80 H          -0.3545   -4.7333    5.2099 H       1  LIG1        0.0263
     81 H          -6.2964   -6.6630    3.9126 H       1  LIG1        0.0230
     82 H          -7.9607   -6.4729    4.4851 H       1  LIG1        0.0230
     83 H          -6.6131   -6.3611    5.6311 H       1  LIG1        0.0230
     84 H          -0.0914   -2.8539    2.8064 H       1  LIG1        0.0230
     85 H           1.1530   -3.8975    3.4969 H       1  LIG1        0.0230
     86 H           0.5540   -2.5110    4.4237 H       1  LIG1        0.0230
@<TRIPOS>BOND
     1     1     2    1
     2     1     3    1
     3     1     4    1
     4     2     5    1
     5     2     6    1
     6     3     8    1
     7     3     7    1
     8     4    10   ar
     9     4     9   ar
    10     5     8    1
    11     5    11    1
    12     6    12    1
    13     7    14   ar
    14     7    13   ar
    15    11    15    1
    16    12    18    1
    17    12    17    1
    18    12    16    1
    19    13    19   ar
    20    14    20   ar
    21    15    22    2
    22    15    21   am
    23    16    23    1
    24    19    25    1
    25    19    24   ar
    26    20    24   ar
    27    20    26    1
    28    21    28    1
    29    21    27    1
    30    23    29    1
    31    24    30    1
    32    25    31    1
    33    26    32    1
    34    27    33    1
    35    28    34    1
    36    30    31    1
    37    33    35    1
    38    34    36    1
    39    35    37    1
    40    36    38    1
    41     1    39    1
    42     2    40    1
    43     3    41    1
    44     5    42    1
    45     6    43    1
    46     6    44    1
    47     8    45    1
    48     8    46    1
    49    11    47    1
    50    11    48    1
    51    13    49    1
    52    14    50    1
    53    16    51    1
    54    16    52    1
    55    17    53    1
    56    17    54    1
    57    17    55    1
    58    18    56    1
    59    18    57    1
    60    18    58    1
    61    23    59    1
    62    23    60    1
    63    27    61    1
    64    27    62    1
    65    28    63    1
    66    28    64    1
    67    29    65    1
    68    29    66    1
    69    29    67    1
    70    31    68    1
    71    31    69    1
    72    32    70    1
    73    32    71    1
    74    32    72    1
    75    33    73    1
    76    33    74    1
    77    34    75    1
    78    34    76    1
    79    35    77    1
    80    35    78    1
    81    36    79    1
    82    36    80    1
    83    37    81    1
    84    37    82    1
    85    37    83    1
    86    38    84    1
    87    38    85    1
    88    38    86    1
@<TRIPOS>MOLECULE
01012527H
 86 88 0 0 0
SMALL
GASTEIGER

@<TRIPOS>ATOM
      1 C          -0.8645    3.0555    5.4526 C.3     1  LIG1        0.0531
      2 C          -1.0586    2.1281    4.2642 C.3     1  LIG1       -0.0111
      3 C          -2.2305    3.3808    6.0382 C.3     1  LIG1        0.0375
      4 C          -0.0441    2.1672    6.3783 C.2     1  LIG1        0.0509
      5 N          -2.5007    1.5790    4.4239 N.4     1  LIG1        0.2448
      6 C          -0.9876    2.7558    2.8538 C.3     1  LIG1       -0.0039
      7 C          -2.6962    4.7476    5.5495 C.ar    1  LIG1       -0.0313
      8 C          -3.0941    2.1712    5.6940 C.3     1  LIG1       -0.0234
      9 O          -0.6820    1.2211    6.9163 O.co2   1  LIG1       -0.5493
     10 O           1.1825    2.4320    6.4009 O.co2   1  LIG1       -0.5493
     11 C          -2.5049    0.0467    4.4356 C.3     1  LIG1        0.0465
     12 C           0.4060    3.1297    2.2429 C.3     1  LIG1       -0.0298
     13 C          -3.4476    4.9534    4.3888 C.ar    1  LIG1       -0.0122
     14 C          -2.2613    5.8850    6.2802 C.ar    1  LIG1       -0.0124
     15 C          -3.9109   -0.5693    4.4758 C.2     1  LIG1        0.2608
     16 C           0.1546    3.3672    0.7158 C.3     1  LIG1       -0.0479
     17 C           0.9689    4.4077    2.8860 C.3     1  LIG1       -0.0596
     18 C           1.4188    1.9885    2.4388 C.3     1  LIG1       -0.0596
     19 C          -3.6841    6.2553    3.9853 C.ar    1  LIG1        0.1702
     20 C          -2.5408    7.1987    5.8727 C.ar    1  LIG1        0.1656
     21 N          -4.0190   -1.9604    4.4471 N.am    1  LIG1       -0.2971
     22 O          -4.9013    0.1681    4.5224 O.2     1  LIG1       -0.2697
     23 C           1.3576    3.8001   -0.1310 C.3     1  LIG1       -0.0554
     24 C          -3.2467    7.3537    4.6969 C.ar    1  LIG1        0.2075
     25 O          -4.3418    6.5950    2.8410 O.3     1  LIG1       -0.4525
     26 O          -2.0476    8.1627    6.7010 O.3     1  LIG1       -0.4913
     27 C          -2.9250   -2.8547    4.0372 C.3     1  LIG1        0.0148
     28 C          -5.3527   -2.5531    4.6109 C.3     1  LIG1        0.0148
     29 C           0.9811    3.9059   -1.6033 C.3     1  LIG1       -0.0653
     30 O          -3.5917    8.5160    4.0754 O.3     1  LIG1       -0.4489
     31 C          -4.2230    8.0292    2.8779 C.3     1  LIG1        0.2334
     32 C          -2.3306    9.5156    6.3718 C.3     1  LIG1        0.0790
     33 C          -2.0445   -3.3260    5.1932 C.3     1  LIG1       -0.0374
     34 C          -5.9082   -2.4906    6.0396 C.3     1  LIG1       -0.0374
     35 C          -0.8391   -4.1438    4.7222 C.3     1  LIG1       -0.0545
     36 C          -5.1280   -3.3573    7.0274 C.3     1  LIG1       -0.0545
     37 C          -1.2233   -5.5183    4.1944 C.3     1  LIG1       -0.0652
     38 C          -5.8504   -3.4936    8.3586 C.3     1  LIG1       -0.0652
     39 H          -0.2891    3.9543    5.2277 H       1  LIG1        0.0424
     40 H          -0.4003    1.2517    4.2749 H       1  LIG1        0.0858
     41 H          -2.1916    3.4445    7.1348 H       1  LIG1        0.0409
     42 H          -3.1067    1.8751    3.6529 H       1  LIG1        0.2042
     43 H          -1.6346    3.6381    2.8059 H       1  LIG1        0.0325
     44 H          -1.4449    2.0261    2.1685 H       1  LIG1        0.0325
     45 H          -4.1409    2.4219    5.4956 H       1  LIG1        0.0821
     46 H          -3.0608    1.4080    6.4773 H       1  LIG1        0.0821
     47 H          -1.9251   -0.2829    5.3016 H       1  LIG1        0.0913
     48 H          -2.0131   -0.2450    3.5042 H       1  LIG1        0.0913
     49 H          -3.8173    4.1429    3.7744 H       1  LIG1        0.0658
     50 H          -1.6665    5.7456    7.1848 H       1  LIG1        0.0658
     51 H          -0.6330    4.1249    0.6020 H       1  LIG1        0.0270
     52 H          -0.2486    2.4420    0.2807 H       1  LIG1        0.0270
     53 H           1.2721    4.2393    3.9220 H       1  LIG1        0.0235
     54 H           0.2340    5.2196    2.8667 H       1  LIG1        0.0235
     55 H           1.8695    4.7599    2.3739 H       1  LIG1        0.0235
     56 H           1.6184    1.8040    3.4992 H       1  LIG1        0.0235
     57 H           2.3864    2.2222    1.9834 H       1  LIG1        0.0235
     58 H           1.0538    1.0558    1.9956 H       1  LIG1        0.0235
     59 H           2.1788    3.0835   -0.0358 H       1  LIG1        0.0263
     60 H           1.7276    4.7758    0.1985 H       1  LIG1        0.0263
     61 H          -2.3102   -2.3334    3.2972 H       1  LIG1        0.0464
     62 H          -3.3586   -3.7111    3.5091 H       1  LIG1        0.0464
     63 H          -5.3407   -3.5935    4.2674 H       1  LIG1        0.0464
     64 H          -6.0378   -2.0126    3.9461 H       1  LIG1        0.0464
     65 H           0.6496    2.9383   -1.9938 H       1  LIG1        0.0230
     66 H           1.8443    4.2311   -2.1924 H       1  LIG1        0.0230
     67 H           0.1752    4.6316   -1.7519 H       1  LIG1        0.0230
     68 H          -5.2239    8.4676    2.8048 H       1  LIG1        0.1166
     69 H          -3.6338    8.3557    2.0129 H       1  LIG1        0.1166
     70 H          -1.9095   10.1437    7.1634 H       1  LIG1        0.0660
     71 H          -3.4088    9.7032    6.3455 H       1  LIG1        0.0660
     72 H          -1.8459    9.8022    5.4334 H       1  LIG1        0.0660
     73 H          -2.6306   -3.9276    5.8936 H       1  LIG1        0.0280
     74 H          -1.6774   -2.4621    5.7572 H       1  LIG1        0.0280
     75 H          -6.9496   -2.8352    6.0085 H       1  LIG1        0.0280
     76 H          -5.9287   -1.4563    6.4015 H       1  LIG1        0.0280
     77 H          -0.1548   -4.2769    5.5681 H       1  LIG1        0.0263
     78 H          -0.2873   -3.5940    3.9505 H       1  LIG1        0.0263
     79 H          -4.1454   -2.9108    7.2111 H       1  LIG1        0.0263
     80 H          -4.9694   -4.3572    6.6079 H       1  LIG1        0.0263
     81 H          -1.7767   -6.0860    4.9495 H       1  LIG1        0.0230
     82 H          -0.3245   -6.0870    3.9363 H       1  LIG1        0.0230
     83 H          -1.8417   -5.4470    3.2952 H       1  LIG1        0.0230
     84 H          -6.0063   -2.5156    8.8236 H       1  LIG1        0.0230
     85 H          -5.2611   -4.1082    9.0466 H       1  LIG1        0.0230
     86 H          -6.8256   -3.9742    8.2279 H       1  LIG1        0.0230
@<TRIPOS>BOND
     1     1     2    1
     2     1     3    1
     3     1     4    1
     4     2     5    1
     5     2     6    1
     6     3     8    1
     7     3     7    1
     8     4    10   ar
     9     4     9   ar
    10     5     8    1
    11     5    11    1
    12     6    12    1
    13     7    14   ar
    14     7    13   ar
    15    11    15    1
    16    12    18    1
    17    12    17    1
    18    12    16    1
    19    13    19   ar
    20    14    20   ar
    21    15    22    2
    22    15    21   am
    23    16    23    1
    24    19    25    1
    25    19    24   ar
    26    20    24   ar
    27    20    26    1
    28    21    28    1
    29    21    27    1
    30    23    29    1
    31    24    30    1
    32    25    31    1
    33    26    32    1
    34    27    33    1
    35    28    34    1
    36    30    31    1
    37    33    35    1
    38    34    36    1
    39    35    37    1
    40    36    38    1
    41     1    39    1
    42     2    40    1
    43     3    41    1
    44     5    42    1
    45     6    43    1
    46     6    44    1
    47     8    45    1
    48     8    46    1
    49    11    47    1
    50    11    48    1
    51    13    49    1
    52    14    50    1
    53    16    51    1
    54    16    52    1
    55    17    53    1
    56    17    54    1
    57    17    55    1
    58    18    56    1
    59    18    57    1
    60    18    58    1
    61    23    59    1
    62    23    60    1
    63    27    61    1
    64    27    62    1
    65    28    63    1
    66    28    64    1
    67    29    65    1
    68    29    66    1
    69    29    67    1
    70    31    68    1
    71    31    69    1
    72    32    70    1
    73    32    71    1
    74    32    72    1
    75    33    73    1
    76    33    74    1
    77    34    75    1
    78    34    76    1
    79    35    77    1
    80    35    78    1
    81    36    79    1
    82    36    80    1
    83    37    81    1
    84    37    82    1
    85    37    83    1
    86    38    84    1
    87    38    85    1
    88    38    86    1
@<TRIPOS>MOLECULE
01012527H
 86 88 0 0 0
SMALL
GASTEIGER

@<TRIPOS>ATOM
      1 C          -0.9155    3.0213    5.5050 C.3     1  LIG1        0.0531
      2 C          -1.0477    2.0885    4.3085 C.3     1  LIG1       -0.0111
      3 C          -2.3143    3.4552    5.9231 C.3     1  LIG1        0.0375
      4 C          -0.2524    2.0762    6.5002 C.2     1  LIG1        0.0509
      5 N          -2.4922    1.5168    4.4435 N.4     1  LIG1        0.2448
      6 C          -0.9581    2.7504    2.9111 C.3     1  LIG1       -0.0039
      7 C          -2.6748    4.8370    5.4003 C.ar    1  LIG1       -0.0313
      8 C          -3.2190    2.2954    5.5180 C.3     1  LIG1       -0.0234
      9 O          -1.0438    1.4567    7.2633 O.co2   1  LIG1       -0.5493
     10 O           0.9875    1.9387    6.3396 O.co2   1  LIG1       -0.5493
     11 C          -2.4885    0.0147    4.7728 C.3     1  LIG1        0.0465
     12 C           0.4453    3.0986    2.3079 C.3     1  LIG1       -0.0298
     13 C          -3.4024    5.0720    4.2301 C.ar    1  LIG1       -0.0122
     14 C          -2.2302    5.9558    6.1524 C.ar    1  LIG1       -0.0124
     15 C          -1.9857   -0.8441    3.6053 C.2     1  LIG1        0.2608
     16 C           0.1981    3.3728    0.7858 C.3     1  LIG1       -0.0479
     17 C           1.0404    4.3468    2.9782 C.3     1  LIG1       -0.0596
     18 C           1.4271    1.9264    2.4763 C.3     1  LIG1       -0.0596
     19 C          -3.6325    6.3829    3.8548 C.ar    1  LIG1        0.1702
     20 C          -2.4953    7.2790    5.7683 C.ar    1  LIG1        0.1656
     21 N          -1.5181   -2.1288    3.8694 N.am    1  LIG1       -0.2971
     22 O          -2.0392   -0.3746    2.4641 O.2     1  LIG1       -0.2697
     23 C           1.4065    3.8023   -0.0542 C.3     1  LIG1       -0.0554
     24 C          -3.1979    7.4631    4.5948 C.ar    1  LIG1        0.2075
     25 O          -4.3001    6.7495    2.7252 O.3     1  LIG1       -0.4525
     26 O          -2.0082    8.2217    6.6242 O.3     1  LIG1       -0.4913
     27 C          -1.4022   -2.7015    5.2235 C.3     1  LIG1        0.0148
     28 C          -0.9257   -2.8878    2.7622 C.3     1  LIG1        0.0148
     29 C           1.0307    3.9281   -1.5255 C.3     1  LIG1       -0.0653
     30 O          -3.5509    8.6399    4.0060 O.3     1  LIG1       -0.4489
     31 C          -4.2017    8.1831    2.8072 C.3     1  LIG1        0.2334
     32 C          -2.3033    9.5812    6.3356 C.3     1  LIG1        0.0790
     33 C          -2.7436   -3.2049    5.7639 C.3     1  LIG1       -0.0374
     34 C          -1.9181   -3.3812    1.7036 C.3     1  LIG1       -0.0374
     35 C          -2.6754   -3.6617    7.2222 C.3     1  LIG1       -0.0545
     36 C          -2.9751   -4.3334    2.2580 C.3     1  LIG1       -0.0545
     37 C          -1.8765   -4.9417    7.4107 C.3     1  LIG1       -0.0652
     38 C          -3.8032   -4.9542    1.1435 C.3     1  LIG1       -0.0652
     39 H          -0.2484    3.8698    5.3467 H       1  LIG1        0.0424
     40 H          -0.3813    1.2204    4.3212 H       1  LIG1        0.0858
     41 H          -2.3875    3.5393    7.0171 H       1  LIG1        0.0409
     42 H          -2.9643    1.5978    3.5355 H       1  LIG1        0.2042
     43 H          -1.5755    3.6525    2.8847 H       1  LIG1        0.0325
     44 H          -1.4340    2.0634    2.1992 H       1  LIG1        0.0325
     45 H          -4.1930    2.5855    5.1141 H       1  LIG1        0.0821
     46 H          -3.3982    1.6241    6.3656 H       1  LIG1        0.0821
     47 H          -3.5339   -0.2537    4.9551 H       1  LIG1        0.0913
     48 H          -1.8966   -0.1228    5.6723 H       1  LIG1        0.0913
     49 H          -3.7721    4.2762    3.5951 H       1  LIG1        0.0658
     50 H          -1.6593    5.7928    7.0686 H       1  LIG1        0.0658
     51 H          -0.5764    4.1461    0.6880 H       1  LIG1        0.0270
     52 H          -0.2216    2.4638    0.3324 H       1  LIG1        0.0270
     53 H           1.3159    4.1540    4.0178 H       1  LIG1        0.0235
     54 H           0.3344    5.1841    2.9567 H       1  LIG1        0.0235
     55 H           1.9612    4.6735    2.4850 H       1  LIG1        0.0235
     56 H           1.6322    1.7209    3.5316 H       1  LIG1        0.0235
     57 H           2.3963    2.1393    2.0146 H       1  LIG1        0.0235
     58 H           1.0315    1.0109    2.0234 H       1  LIG1        0.0235
     59 H           2.2202    3.0764    0.0325 H       1  LIG1        0.0263
     60 H           1.7859    4.7701    0.2882 H       1  LIG1        0.0263
     61 H          -0.9814   -1.9427    5.8898 H       1  LIG1        0.0464
     62 H          -0.6753   -3.5198    5.2041 H       1  LIG1        0.0464
     63 H          -0.3643   -3.7418    3.1571 H       1  LIG1        0.0464
     64 H          -0.1925   -2.2327    2.2747 H       1  LIG1        0.0464
     65 H           0.6904    2.9677   -1.9264 H       1  LIG1        0.0230
     66 H           1.8964    4.2518   -2.1117 H       1  LIG1        0.0230
     67 H           0.2307    4.6621   -1.6659 H       1  LIG1        0.0230
     68 H          -5.2111    8.6076    2.7716 H       1  LIG1        0.1166
     69 H          -3.6369    8.5474    1.9411 H       1  LIG1        0.1166
     70 H          -1.8855   10.1893    7.1442 H       1  LIG1        0.0660
     71 H          -3.3834    9.7597    6.3177 H       1  LIG1        0.0660
     72 H          -1.8239    9.8995    5.4047 H       1  LIG1        0.0660
     73 H          -3.1086   -4.0304    5.1442 H       1  LIG1        0.0280
     74 H          -3.4974   -2.4144    5.6915 H       1  LIG1        0.0280
     75 H          -1.3444   -3.8950    0.9218 H       1  LIG1        0.0280
     76 H          -2.4154   -2.5354    1.2167 H       1  LIG1        0.0280
     77 H          -3.6975   -3.8366    7.5791 H       1  LIG1        0.0263
     78 H          -2.2531   -2.8666    7.8473 H       1  LIG1        0.0263
     79 H          -3.6476   -3.7886    2.9285 H       1  LIG1        0.0263
     80 H          -2.4984   -5.1313    2.8386 H       1  LIG1        0.0263
     81 H          -2.2736   -5.7469    6.7840 H       1  LIG1        0.0230
     82 H          -1.9313   -5.2683    8.4541 H       1  LIG1        0.0230
     83 H          -0.8216   -4.7973    7.1610 H       1  LIG1        0.0230
     84 H          -4.3066   -4.1826    0.5523 H       1  LIG1        0.0230
     85 H          -4.5681   -5.6150    1.5631 H       1  LIG1        0.0230
     86 H          -3.1742   -5.5469    0.4715 H       1  LIG1        0.0230
@<TRIPOS>BOND
     1     1     2    1
     2     1     3    1
     3     1     4    1
     4     2     5    1
     5     2     6    1
     6     3     8    1
     7     3     7    1
     8     4    10   ar
     9     4     9   ar
    10     5     8    1
    11     5    11    1
    12     6    12    1
    13     7    14   ar
    14     7    13   ar
    15    11    15    1
    16    12    18    1
    17    12    17    1
    18    12    16    1
    19    13    19   ar
    20    14    20   ar
    21    15    22    2
    22    15    21   am
    23    16    23    1
    24    19    25    1
    25    19    24   ar
    26    20    24   ar
    27    20    26    1
    28    21    28    1
    29    21    27    1
    30    23    29    1
    31    24    30    1
    32    25    31    1
    33    26    32    1
    34    27    33    1
    35    28    34    1
    36    30    31    1
    37    33    35    1
    38    34    36    1
    39    35    37    1
    40    36    38    1
    41     1    39    1
    42     2    40    1
    43     3    41    1
    44     5    42    1
    45     6    43    1
    46     6    44    1
    47     8    45    1
    48     8    46    1
    49    11    47    1
    50    11    48    1
    51    13    49    1
    52    14    50    1
    53    16    51    1
    54    16    52    1
    55    17    53    1
    56    17    54    1
    57    17    55    1
    58    18    56    1
    59    18    57    1
    60    18    58    1
    61    23    59    1
    62    23    60    1
    63    27    61    1
    64    27    62    1
    65    28    63    1
    66    28    64    1
    67    29    65    1
    68    29    66    1
    69    29    67    1
    70    31    68    1
    71    31    69    1
    72    32    70    1
    73    32    71    1
    74    32    72    1
    75    33    73    1
    76    33    74    1
    77    34    75    1
    78    34    76    1
    79    35    77    1
    80    35    78    1
    81    36    79    1
    82    36    80    1
    83    37    81    1
    84    37    82    1
    85    37    83    1
    86    38    84    1
    87    38    85    1
    88    38    86    1
@<TRIPOS>MOLECULE
01012527H
 86 88 0 0 0
SMALL
GASTEIGER

@<TRIPOS>ATOM
      1 C          -0.7593    2.9146    5.4754 C.3     1  LIG1        0.0531
      2 C          -1.0288    2.1089    4.2103 C.3     1  LIG1       -0.0111
      3 C          -2.1032    3.3259    6.0730 C.3     1  LIG1        0.0375
      4 C          -0.0253    1.8509    6.2929 C.2     1  LIG1        0.0509
      5 N          -2.4826    1.6117    4.3755 N.4     1  LIG1        0.2448
      6 C          -0.9775    2.8546    2.8555 C.3     1  LIG1       -0.0039
      7 C          -2.6606    4.6978    5.6894 C.ar    1  LIG1       -0.0313
      8 C          -3.0270    2.1637    5.6845 C.3     1  LIG1       -0.0234
      9 O          -0.7548    1.1087    7.0011 O.co2   1  LIG1       -0.5493
     10 O           1.2055    1.7703    6.0400 O.co2   1  LIG1       -0.5493
     11 C          -2.5571    0.0825    4.3201 C.3     1  LIG1        0.0465
     12 C           0.4173    3.1399    2.1939 C.3     1  LIG1       -0.0298
     13 C          -1.9014    5.6791    5.0406 C.ar    1  LIG1       -0.0122
     14 C          -3.9675    5.0582    6.1132 C.ar    1  LIG1       -0.0124
     15 C          -3.9923   -0.4561    4.3484 C.2     1  LIG1        0.2608
     16 C           0.1346    3.4168    0.6787 C.3     1  LIG1       -0.0479
     17 C           1.0932    4.3656    2.8275 C.3     1  LIG1       -0.0596
     18 C           1.3604    1.9305    2.3288 C.3     1  LIG1       -0.0596
     19 C          -2.4659    6.9195    4.8021 C.ar    1  LIG1        0.1702
     20 C          -4.5284    6.3241    5.8664 C.ar    1  LIG1        0.1656
     21 N          -4.1757   -1.8357    4.3789 N.am    1  LIG1       -0.2971
     22 O          -4.9397    0.3373    4.3396 O.2     1  LIG1       -0.2697
     23 C           1.3334    3.8275   -0.1856 C.3     1  LIG1       -0.0554
     24 C          -3.7439    7.2439    5.1987 C.ar    1  LIG1        0.2075
     25 O          -1.8283    7.9532    4.1819 O.3     1  LIG1       -0.4525
     26 O          -5.7996    6.4775    6.3380 O.3     1  LIG1       -0.4913
     27 C          -3.0967   -2.8310    4.2566 C.3     1  LIG1        0.0148
     28 C          -5.5359   -2.3401    4.6003 C.3     1  LIG1        0.0148
     29 C           0.9396    3.9396   -1.6525 C.3     1  LIG1       -0.0653
     30 O          -4.0576    8.5272    4.8639 O.3     1  LIG1       -0.4489
     31 C          -2.8260    8.9850    4.2759 C.3     1  LIG1        0.2334
     32 C          -6.4136    7.7470    6.1563 C.3     1  LIG1        0.0790
     33 C          -3.2607   -3.7231    3.0222 C.3     1  LIG1       -0.0374
     34 C          -6.4113   -2.2742    3.3456 C.3     1  LIG1       -0.0374
     35 C          -2.0735   -4.6679    2.8396 C.3     1  LIG1       -0.0545
     36 C          -7.7528   -2.9908    3.5144 C.3     1  LIG1       -0.0545
     37 C          -2.2920   -5.6103    1.6663 C.3     1  LIG1       -0.0652
     38 C          -8.6260   -2.3963    4.6088 C.3     1  LIG1       -0.0652
     39 H          -0.0652    3.7434    5.3508 H       1  LIG1        0.0424
     40 H          -0.4210    1.2026    4.1177 H       1  LIG1        0.0858
     41 H          -2.0234    3.3625    7.1679 H       1  LIG1        0.0409
     42 H          -3.0992    1.9731    3.6382 H       1  LIG1        0.2042
     43 H          -1.5476    3.7893    2.9181 H       1  LIG1        0.0325
     44 H          -1.5349    2.2314    2.1390 H       1  LIG1        0.0325
     45 H          -4.0642    2.4525    5.4957 H       1  LIG1        0.0821
     46 H          -3.0280    1.3621    6.4299 H       1  LIG1        0.0821
     47 H          -1.9865   -0.3092    5.1667 H       1  LIG1        0.0913
     48 H          -2.1011   -0.2062    3.3673 H       1  LIG1        0.0913
     49 H          -0.8764    5.5292    4.7307 H       1  LIG1        0.0658
     50 H          -4.5697    4.3505    6.6833 H       1  LIG1        0.0658
     51 H          -0.6280    4.2038    0.5991 H       1  LIG1        0.0270
     52 H          -0.3113    2.5148    0.2368 H       1  LIG1        0.0270
     53 H           1.3168    4.2069    3.8838 H       1  LIG1        0.0235
     54 H           0.4629    5.2564    2.7364 H       1  LIG1        0.0235
     55 H           2.0532    4.5898    2.3510 H       1  LIG1        0.0235
     56 H           1.6130    1.7318    3.3746 H       1  LIG1        0.0235
     57 H           2.3138    2.0960    1.8173 H       1  LIG1        0.0235
     58 H           0.9065    1.0262    1.9093 H       1  LIG1        0.0235
     59 H           2.1443    3.0981   -0.1033 H       1  LIG1        0.0263
     60 H           1.7244    4.7961    0.1423 H       1  LIG1        0.0263
     61 H          -3.1034   -3.4378    5.1694 H       1  LIG1        0.0464
     62 H          -2.1226   -2.3385    4.2112 H       1  LIG1        0.0464
     63 H          -5.9862   -1.7364    5.3971 H       1  LIG1        0.0464
     64 H          -5.4745   -3.3674    4.9772 H       1  LIG1        0.0464
     65 H           0.5894    2.9765   -2.0382 H       1  LIG1        0.0230
     66 H           1.8005    4.2512   -2.2523 H       1  LIG1        0.0230
     67 H           0.1426    4.6770   -1.7910 H       1  LIG1        0.0230
     68 H          -3.0394    9.3623    3.2692 H       1  LIG1        0.1166
     69 H          -2.4300    9.8062    4.8862 H       1  LIG1        0.1166
     70 H          -7.4133    7.6998    6.6003 H       1  LIG1        0.0660
     71 H          -6.5391    7.9772    5.0936 H       1  LIG1        0.0660
     72 H          -5.8611    8.5340    6.6799 H       1  LIG1        0.0660
     73 H          -3.3727   -3.0978    2.1277 H       1  LIG1        0.0280
     74 H          -4.1781   -4.3166    3.1123 H       1  LIG1        0.0280
     75 H          -5.8850   -2.7274    2.4982 H       1  LIG1        0.0280
     76 H          -6.5904   -1.2295    3.0651 H       1  LIG1        0.0280
     77 H          -1.9191   -5.2583    3.7496 H       1  LIG1        0.0263
     78 H          -1.1602   -4.0871    2.6679 H       1  LIG1        0.0263
     79 H          -7.5818   -4.0533    3.7234 H       1  LIG1        0.0263
     80 H          -8.2971   -2.9388    2.5639 H       1  LIG1        0.0263
     81 H          -3.1700   -6.2423    1.8294 H       1  LIG1        0.0230
     82 H          -1.4255   -6.2655    1.5352 H       1  LIG1        0.0230
     83 H          -2.4417   -5.0556    0.7345 H       1  LIG1        0.0230
     84 H          -8.1851   -2.5481    5.5987 H       1  LIG1        0.0230
     85 H          -9.6091   -2.8779    4.6084 H       1  LIG1        0.0230
     86 H          -8.7729   -1.3227    4.4557 H       1  LIG1        0.0230
@<TRIPOS>BOND
     1     1     2    1
     2     1     3    1
     3     1     4    1
     4     2     5    1
     5     2     6    1
     6     3     8    1
     7     3     7    1
     8     4    10   ar
     9     4     9   ar
    10     5     8    1
    11     5    11    1
    12     6    12    1
    13     7    14   ar
    14     7    13   ar
    15    11    15    1
    16    12    18    1
    17    12    17    1
    18    12    16    1
    19    13    19   ar
    20    14    20   ar
    21    15    22    2
    22    15    21   am
    23    16    23    1
    24    19    25    1
    25    19    24   ar
    26    20    24   ar
    27    20    26    1
    28    21    28    1
    29    21    27    1
    30    23    29    1
    31    24    30    1
    32    25    31    1
    33    26    32    1
    34    27    33    1
    35    28    34    1
    36    30    31    1
    37    33    35    1
    38    34    36    1
    39    35    37    1
    40    36    38    1
    41     1    39    1
    42     2    40    1
    43     3    41    1
    44     5    42    1
    45     6    43    1
    46     6    44    1
    47     8    45    1
    48     8    46    1
    49    11    47    1
    50    11    48    1
    51    13    49    1
    52    14    50    1
    53    16    51    1
    54    16    52    1
    55    17    53    1
    56    17    54    1
    57    17    55    1
    58    18    56    1
    59    18    57    1
    60    18    58    1
    61    23    59    1
    62    23    60    1
    63    27    61    1
    64    27    62    1
    65    28    63    1
    66    28    64    1
    67    29    65    1
    68    29    66    1
    69    29    67    1
    70    31    68    1
    71    31    69    1
    72    32    70    1
    73    32    71    1
    74    32    72    1
    75    33    73    1
    76    33    74    1
    77    34    75    1
    78    34    76    1
    79    35    77    1
    80    35    78    1
    81    36    79    1
    82    36    80    1
    83    37    81    1
    84    37    82    1
    85    37    83    1
    86    38    84    1
    87    38    85    1
    88    38    86    1
@<TRIPOS>MOLECULE
01012527H
 86 88 0 0 0
SMALL
GASTEIGER

@<TRIPOS>ATOM
      1 C          -0.8692    2.9759    5.5272 C.3     1  LIG1        0.0531
      2 C          -1.0675    2.1117    4.2901 C.3     1  LIG1       -0.0111
      3 C          -2.2442    3.3654    6.0533 C.3     1  LIG1        0.0375
      4 C          -0.1258    1.9809    6.4097 C.2     1  LIG1        0.0509
      5 N          -2.5068    1.5525    4.4448 N.4     1  LIG1        0.2448
      6 C          -1.0171    2.7962    2.9051 C.3     1  LIG1       -0.0039
      7 C          -2.6450    4.7444    5.5409 C.ar    1  LIG1       -0.0313
      8 C          -3.1342    2.1803    5.6843 C.3     1  LIG1       -0.0234
      9 O           1.1070    1.8984    6.1721 O.co2   1  LIG1       -0.5493
     10 O          -0.8517    1.2741    7.1586 O.co2   1  LIG1       -0.5493
     11 C          -2.4920    0.0209    4.5135 C.3     1  LIG1        0.0465
     12 C           0.3671    3.2123    2.3060 C.3     1  LIG1       -0.0298
     13 C          -3.4493    4.9665    4.4194 C.ar    1  LIG1       -0.0122
     14 C          -2.1138    5.8716    6.2209 C.ar    1  LIG1       -0.0124
     15 C          -3.8949   -0.6023    4.4917 C.2     1  LIG1        0.2608
     16 C           0.9009    4.4969    2.9981 C.3     1  LIG1       -0.0479
     17 C           1.3905    2.0697    2.4325 C.3     1  LIG1       -0.0596
     18 C           0.1342    3.4743    0.7986 C.3     1  LIG1       -0.0596
     19 C          -3.6446    6.2720    4.0016 C.ar    1  LIG1        0.1702
     20 C          -2.3394    7.1898    5.7935 C.ar    1  LIG1        0.1656
     21 N          -3.9967   -1.9935    4.4368 N.am    1  LIG1       -0.2971
     22 O          -4.8889    0.1313    4.5093 O.2     1  LIG1       -0.2697
     23 C           2.0706    5.2058    2.3032 C.3     1  LIG1       -0.0554
     24 C          -3.1085    7.3586    4.6604 C.ar    1  LIG1        0.2075
     25 O          -4.3601    6.6221    2.8956 O.3     1  LIG1       -0.4525
     26 O          -1.7469    8.1418    6.5679 O.3     1  LIG1       -0.4913
     27 C          -2.8858   -2.8781    4.0486 C.3     1  LIG1        0.0148
     28 C          -5.3388   -2.5855    4.5165 C.3     1  LIG1        0.0148
     29 C           2.5126    6.4317    3.0910 C.3     1  LIG1       -0.0653
     30 O          -3.4412    8.5261    4.0408 O.3     1  LIG1       -0.4489
     31 C          -4.1927    8.0520    2.9093 C.3     1  LIG1        0.2334
     32 C          -1.8231    9.4888    6.1197 C.3     1  LIG1        0.0790
     33 C          -1.9771   -3.2899    5.2069 C.3     1  LIG1       -0.0374
     34 C          -5.9589   -2.5565    5.9189 C.3     1  LIG1       -0.0374
     35 C          -0.7872   -4.1391    4.7507 C.3     1  LIG1       -0.0545
     36 C          -5.2612   -3.4216    6.9699 C.3     1  LIG1       -0.0545
     37 C          -1.1900   -5.5240    4.2662 C.3     1  LIG1       -0.0652
     38 C          -5.2208   -4.9014    6.6187 C.3     1  LIG1       -0.0652
     39 H          -0.2219    3.8402    5.3789 H       1  LIG1        0.0424
     40 H          -0.4104    1.2352    4.2431 H       1  LIG1        0.0858
     41 H          -2.2472    3.4411    7.1494 H       1  LIG1        0.0409
     42 H          -3.1018    1.8105    3.6518 H       1  LIG1        0.2042
     43 H          -1.6796    3.6665    2.8868 H       1  LIG1        0.0325
     44 H          -1.4661    2.0841    2.1958 H       1  LIG1        0.0325
     45 H          -4.1638    2.4574    5.4389 H       1  LIG1        0.0821
     46 H          -3.1623    1.4253    6.4757 H       1  LIG1        0.0821
     47 H          -1.9645   -0.2657    5.4234 H       1  LIG1        0.0913
     48 H          -1.9451   -0.2993    3.6238 H       1  LIG1        0.0913
     49 H          -3.8968    4.1649    3.8454 H       1  LIG1        0.0658
     50 H          -1.4866    5.7192    7.1016 H       1  LIG1        0.0658
     51 H           1.2350    4.2457    4.0094 H       1  LIG1        0.0270
     52 H           0.0787    5.2164    3.1033 H       1  LIG1        0.0270
     53 H           0.9801    1.1295    2.0480 H       1  LIG1        0.0235
     54 H           1.6874    1.9074    3.4725 H       1  LIG1        0.0235
     55 H           2.3031    2.2826    1.8660 H       1  LIG1        0.0235
     56 H          -0.3196    2.6032    0.3103 H       1  LIG1        0.0235
     57 H           1.0703    3.6739    0.2672 H       1  LIG1        0.0235
     58 H          -0.5352    4.3285    0.6461 H       1  LIG1        0.0235
     59 H           1.7814    5.5351    1.2997 H       1  LIG1        0.0263
     60 H           2.9213    4.5249    2.1975 H       1  LIG1        0.0263
     61 H          -2.2945   -2.3672    3.2814 H       1  LIG1        0.0464
     62 H          -3.3039   -3.7632    3.5585 H       1  LIG1        0.0464
     63 H          -5.3242   -3.6075    4.1249 H       1  LIG1        0.0464
     64 H          -5.9892   -2.0142    3.8417 H       1  LIG1        0.0464
     65 H           1.6956    7.1552    3.1789 H       1  LIG1        0.0230
     66 H           3.3489    6.9252    2.5855 H       1  LIG1        0.0230
     67 H           2.8379    6.1563    4.0985 H       1  LIG1        0.0230
     68 H          -5.1815    8.5220    2.9209 H       1  LIG1        0.1166
     69 H          -3.6718    8.3533    1.9918 H       1  LIG1        0.1166
     70 H          -1.2582   10.1045    6.8262 H       1  LIG1        0.0660
     71 H          -2.8556    9.8504    6.1240 H       1  LIG1        0.0660
     72 H          -1.3560    9.6057    5.1370 H       1  LIG1        0.0660
     73 H          -2.5444   -3.8460    5.9568 H       1  LIG1        0.0280
     74 H          -1.5890   -2.4022    5.7140 H       1  LIG1        0.0280
     75 H          -7.0022   -2.8857    5.8370 H       1  LIG1        0.0280
     76 H          -5.9905   -1.5253    6.2906 H       1  LIG1        0.0280
     77 H          -0.0981   -4.2547    5.5952 H       1  LIG1        0.0263
     78 H          -0.2346   -3.6189    3.9589 H       1  LIG1        0.0263
     79 H          -5.7984   -3.3091    7.9190 H       1  LIG1        0.0263
     80 H          -4.2475   -3.0499    7.1497 H       1  LIG1        0.0263
     81 H          -1.7612   -6.0566    5.0330 H       1  LIG1        0.0230
     82 H          -0.2982   -6.1162    4.0363 H       1  LIG1        0.0230
     83 H          -1.7965   -5.4730    3.3570 H       1  LIG1        0.0230
     84 H          -6.2282   -5.2907    6.4443 H       1  LIG1        0.0230
     85 H          -4.7756   -5.4707    7.4421 H       1  LIG1        0.0230
     86 H          -4.6195   -5.0925    5.7251 H       1  LIG1        0.0230
@<TRIPOS>BOND
     1     1     2    1
     2     1     3    1
     3     1     4    1
     4     2     5    1
     5     2     6    1
     6     3     8    1
     7     3     7    1
     8     4    10   ar
     9     4     9   ar
    10     5     8    1
    11     5    11    1
    12     6    12    1
    13     7    14   ar
    14     7    13   ar
    15    11    15    1
    16    12    18    1
    17    12    17    1
    18    12    16    1
    19    13    19   ar
    20    14    20   ar
    21    15    22    2
    22    15    21   am
    23    16    23    1
    24    19    25    1
    25    19    24   ar
    26    20    24   ar
    27    20    26    1
    28    21    28    1
    29    21    27    1
    30    23    29    1
    31    24    30    1
    32    25    31    1
    33    26    32    1
    34    27    33    1
    35    28    34    1
    36    30    31    1
    37    33    35    1
    38    34    36    1
    39    35    37    1
    40    36    38    1
    41     1    39    1
    42     2    40    1
    43     3    41    1
    44     5    42    1
    45     6    43    1
    46     6    44    1
    47     8    45    1
    48     8    46    1
    49    11    47    1
    50    11    48    1
    51    13    49    1
    52    14    50    1
    53    16    51    1
    54    16    52    1
    55    17    53    1
    56    17    54    1
    57    17    55    1
    58    18    56    1
    59    18    57    1
    60    18    58    1
    61    23    59    1
    62    23    60    1
    63    27    61    1
    64    27    62    1
    65    28    63    1
    66    28    64    1
    67    29    65    1
    68    29    66    1
    69    29    67    1
    70    31    68    1
    71    31    69    1
    72    32    70    1
    73    32    71    1
    74    32    72    1
    75    33    73    1
    76    33    74    1
    77    34    75    1
    78    34    76    1
    79    35    77    1
    80    35    78    1
    81    36    79    1
    82    36    80    1
    83    37    81    1
    84    37    82    1
    85    37    83    1
    86    38    84    1
    87    38    85    1
    88    38    86    1
@<TRIPOS>MOLECULE
01012527H
 86 88 0 0 0
SMALL
GASTEIGER

@<TRIPOS>ATOM
      1 C          -0.8545    3.0029    5.4716 C.3     1  LIG1        0.0531
      2 C          -1.0587    2.1074    4.2584 C.3     1  LIG1       -0.0111
      3 C          -2.2233    3.3800    6.0212 C.3     1  LIG1        0.0375
      4 C          -0.0839    2.0362    6.3613 C.2     1  LIG1        0.0509
      5 N          -2.5029    1.5622    4.4216 N.4     1  LIG1        0.2448
      6 C          -0.9946    2.7614    2.8593 C.3     1  LIG1       -0.0039
      7 C          -2.6407    4.7579    5.5214 C.ar    1  LIG1       -0.0313
      8 C          -3.1159    2.1945    5.6649 C.3     1  LIG1       -0.0234
      9 O          -0.7936    1.2893    7.0867 O.co2   1  LIG1       -0.5493
     10 O           1.1553    2.0155    6.1506 O.co2   1  LIG1       -0.5493
     11 C          -2.5005    0.0305    4.4892 C.3     1  LIG1        0.0465
     12 C           0.3972    3.1329    2.2420 C.3     1  LIG1       -0.0298
     13 C          -3.3961    4.9828    4.3666 C.ar    1  LIG1       -0.0122
     14 C          -2.1667    5.8842    6.2445 C.ar    1  LIG1       -0.0124
     15 C          -3.9061   -0.5883    4.5090 C.2     1  LIG1        0.2608
     16 C           0.1366    3.3951    0.7203 C.3     1  LIG1       -0.0479
     17 C           0.9735    4.3968    2.9004 C.3     1  LIG1       -0.0596
     18 C           1.4031    1.9808    2.4081 C.3     1  LIG1       -0.0596
     19 C          -3.5983    6.2898    3.9605 C.ar    1  LIG1        0.1702
     20 C          -2.3961    7.2033    5.8253 C.ar    1  LIG1        0.1656
     21 N          -4.0117   -1.9790    4.4694 N.am    1  LIG1       -0.2971
     22 O          -4.8983    0.1475    4.5513 O.2     1  LIG1       -0.2697
     23 C           1.3393    3.8266   -0.1279 C.3     1  LIG1       -0.0554
     24 C          -3.1151    7.3765    4.6600 C.ar    1  LIG1        0.2075
     25 O          -4.2681    6.6459    2.8283 O.3     1  LIG1       -0.4525
     26 O          -1.8619    8.1562    6.6411 O.3     1  LIG1       -0.4913
     27 C          -2.9162   -2.8697    4.0544 C.3     1  LIG1        0.0148
     28 C          -5.3457   -2.5733    4.6214 C.3     1  LIG1        0.0148
     29 C           0.9603    3.9394   -1.5989 C.3     1  LIG1       -0.0653
     30 O          -3.4441    8.5475    4.0464 O.3     1  LIG1       -0.4489
     31 C          -4.1269    8.0783    2.8705 C.3     1  LIG1        0.2334
     32 C          -1.8230    9.4871    6.1452 C.3     1  LIG1        0.0790
     33 C          -2.0196   -3.3272    5.2037 C.3     1  LIG1       -0.0374
     34 C          -5.9090   -2.5165    6.0471 C.3     1  LIG1       -0.0374
     35 C          -0.8216   -4.1519    4.7253 C.3     1  LIG1       -0.0545
     36 C          -5.1265   -3.3783    7.0374 C.3     1  LIG1       -0.0545
     37 C          -1.2144   -5.5280    4.2081 C.3     1  LIG1       -0.0652
     38 C          -5.8506   -3.5130    8.3678 C.3     1  LIG1       -0.0652
     39 H          -0.2256    3.8754    5.2910 H       1  LIG1        0.0424
     40 H          -0.4112    1.2235    4.2362 H       1  LIG1        0.0858
     41 H          -2.2082    3.4501    7.1180 H       1  LIG1        0.0409
     42 H          -3.1003    1.8271    3.6329 H       1  LIG1        0.2042
     43 H          -1.6331    3.6493    2.8303 H       1  LIG1        0.0325
     44 H          -1.4637    2.0478    2.1656 H       1  LIG1        0.0325
     45 H          -4.1475    2.4736    5.4285 H       1  LIG1        0.0821
     46 H          -3.1348    1.4424    6.4597 H       1  LIG1        0.0821
     47 H          -1.9475   -0.2641    5.3835 H       1  LIG1        0.0913
     48 H          -1.9789   -0.2918    3.5819 H       1  LIG1        0.0913
     49 H          -3.7989    4.1811    3.7607 H       1  LIG1        0.0658
     50 H          -1.5777    5.7302    7.1506 H       1  LIG1        0.0658
     51 H          -0.6437    4.1625    0.6224 H       1  LIG1        0.0270
     52 H          -0.2791    2.4802    0.2756 H       1  LIG1        0.0270
     53 H           1.2771    4.2124    3.9334 H       1  LIG1        0.0235
     54 H           0.2459    5.2155    2.8936 H       1  LIG1        0.0235
     55 H           1.8755    4.7474    2.3897 H       1  LIG1        0.0235
     56 H           1.6104    1.7742    3.4619 H       1  LIG1        0.0235
     57 H           2.3693    2.2160    1.9507 H       1  LIG1        0.0235
     58 H           1.0280    1.0592    1.9503 H       1  LIG1        0.0235
     59 H           2.1581    3.1067   -0.0391 H       1  LIG1        0.0263
     60 H           1.7142    4.7991    0.2059 H       1  LIG1        0.0263
     61 H          -2.3140   -2.3499    3.3029 H       1  LIG1        0.0464
     62 H          -3.3496   -3.7328    3.5381 H       1  LIG1        0.0464
     63 H          -5.3310   -3.6127    4.2749 H       1  LIG1        0.0464
     64 H          -6.0272   -2.0311    3.9542 H       1  LIG1        0.0464
     65 H           0.6257    2.9742   -1.9924 H       1  LIG1        0.0230
     66 H           1.8237    4.2640   -2.1883 H       1  LIG1        0.0230
     67 H           0.1561    4.6679   -1.7434 H       1  LIG1        0.0230
     68 H          -5.1237    8.5318    2.8368 H       1  LIG1        0.1166
     69 H          -3.5647    8.4024    1.9867 H       1  LIG1        0.1166
     70 H          -1.2603   10.0909    6.8642 H       1  LIG1        0.0660
     71 H          -2.8286    9.9132    6.0767 H       1  LIG1        0.0660
     72 H          -1.2942    9.5404    5.1880 H       1  LIG1        0.0660
     73 H          -2.5964   -3.9189    5.9204 H       1  LIG1        0.0280
     74 H          -1.6431   -2.4571    5.7515 H       1  LIG1        0.0280
     75 H          -6.9477   -2.8684    6.0108 H       1  LIG1        0.0280
     76 H          -5.9385   -1.4828    6.4100 H       1  LIG1        0.0280
     77 H          -0.1297   -4.2828    5.5659 H       1  LIG1        0.0263
     78 H          -0.2753   -3.6079    3.9461 H       1  LIG1        0.0263
     79 H          -4.1454   -2.9286    7.2210 H       1  LIG1        0.0263
     80 H          -4.9639   -4.3787    6.6202 H       1  LIG1        0.0263
     81 H          -1.7678   -6.0882    4.9685 H       1  LIG1        0.0230
     82 H          -0.3192   -6.1029    3.9501 H       1  LIG1        0.0230
     83 H          -1.8354   -5.4594    3.3102 H       1  LIG1        0.0230
     84 H          -6.0083   -2.5338    8.8307 H       1  LIG1        0.0230
     85 H          -5.2610   -4.1252    9.0576 H       1  LIG1        0.0230
     86 H          -6.8249   -3.9950    8.2373 H       1  LIG1        0.0230
@<TRIPOS>BOND
     1     1     2    1
     2     1     3    1
     3     1     4    1
     4     2     5    1
     5     2     6    1
     6     3     8    1
     7     3     7    1
     8     4    10   ar
     9     4     9   ar
    10     5     8    1
    11     5    11    1
    12     6    12    1
    13     7    14   ar
    14     7    13   ar
    15    11    15    1
    16    12    18    1
    17    12    17    1
    18    12    16    1
    19    13    19   ar
    20    14    20   ar
    21    15    22    2
    22    15    21   am
    23    16    23    1
    24    19    25    1
    25    19    24   ar
    26    20    24   ar
    27    20    26    1
    28    21    28    1
    29    21    27    1
    30    23    29    1
    31    24    30    1
    32    25    31    1
    33    26    32    1
    34    27    33    1
    35    28    34    1
    36    30    31    1
    37    33    35    1
    38    34    36    1
    39    35    37    1
    40    36    38    1
    41     1    39    1
    42     2    40    1
    43     3    41    1
    44     5    42    1
    45     6    43    1
    46     6    44    1
    47     8    45    1
    48     8    46    1
    49    11    47    1
    50    11    48    1
    51    13    49    1
    52    14    50    1
    53    16    51    1
    54    16    52    1
    55    17    53    1
    56    17    54    1
    57    17    55    1
    58    18    56    1
    59    18    57    1
    60    18    58    1
    61    23    59    1
    62    23    60    1
    63    27    61    1
    64    27    62    1
    65    28    63    1
    66    28    64    1
    67    29    65    1
    68    29    66    1
    69    29    67    1
    70    31    68    1
    71    31    69    1
    72    32    70    1
    73    32    71    1
    74    32    72    1
    75    33    73    1
    76    33    74    1
    77    34    75    1
    78    34    76    1
    79    35    77    1
    80    35    78    1
    81    36    79    1
    82    36    80    1
    83    37    81    1
    84    37    82    1
    85    37    83    1
    86    38    84    1
    87    38    85    1
    88    38    86    1
@<TRIPOS>MOLECULE
01012527H
 86 88 0 0 0
SMALL
GASTEIGER

@<TRIPOS>ATOM
      1 C          -1.0355    3.0715    5.4284 C.3     1  LIG1        0.0531
      2 C          -1.1237    2.0718    4.2822 C.3     1  LIG1       -0.0111
      3 C          -2.4431    3.3688    5.9206 C.3     1  LIG1        0.0375
      4 C          -0.2315    2.2352    6.4178 C.2     1  LIG1        0.0509
      5 N          -2.5195    1.4032    4.4641 N.4     1  LIG1        0.2448
      6 C          -1.0897    2.6792    2.8566 C.3     1  LIG1       -0.0039
      7 C          -2.9969    4.7021    5.4463 C.ar    1  LIG1       -0.0313
      8 C          -3.2661    2.1381    5.5570 C.3     1  LIG1       -0.0234
      9 O           1.0125    2.2779    6.2466 O.co2   1  LIG1       -0.5493
     10 O          -0.9160    1.5110    7.1930 O.co2   1  LIG1       -0.5493
     11 C          -2.4110   -0.0858    4.8245 C.3     1  LIG1        0.0465
     12 C           0.3005    3.0247    2.2298 C.3     1  LIG1       -0.0298
     13 C          -2.7922    5.8268    6.2639 C.ar    1  LIG1       -0.0122
     14 C          -3.7383    4.8631    4.2568 C.ar    1  LIG1       -0.0124
     15 C          -1.7332   -0.9439    3.7465 C.2     1  LIG1        0.2608
     16 C           0.1223    3.2948    0.6974 C.3     1  LIG1       -0.0479
     17 C           0.8665    4.3198    2.8476 C.3     1  LIG1       -0.0596
     18 C           1.3286    1.9004    2.4468 C.3     1  LIG1       -0.0596
     19 C          -3.3658    7.0267    5.8969 C.ar    1  LIG1        0.1702
     20 C          -4.2939    6.1005    3.8868 C.ar    1  LIG1        0.1656
     21 N          -1.1043   -2.1262    4.1434 N.am    1  LIG1       -0.2971
     22 O          -1.7919   -0.5725    2.5689 O.2     1  LIG1       -0.2697
     23 C          -0.1975    2.0696   -0.1725 C.3     1  LIG1       -0.0554
     24 C          -4.1044    7.1695    4.7433 C.ar    1  LIG1        0.2075
     25 O          -3.2925    8.1730    6.6267 O.3     1  LIG1       -0.4525
     26 O          -4.9854    6.0722    2.7100 O.3     1  LIG1       -0.4913
     27 C          -0.3078   -2.8646    3.1532 C.3     1  LIG1        0.0148
     28 C          -1.0150   -2.5632    5.5493 C.3     1  LIG1        0.0148
     29 C          -0.3566    2.4550   -1.6368 C.3     1  LIG1       -0.0653
     30 O          -4.5875    8.4380    4.6207 O.3     1  LIG1       -0.4489
     31 C          -4.1094    9.0502    5.8338 C.3     1  LIG1        0.2334
     32 C          -5.4271    7.3219    2.1941 C.3     1  LIG1        0.0790
     33 C          -0.5191   -4.3825    3.1767 C.3     1  LIG1       -0.0374
     34 C          -2.3035   -3.2661    5.9910 C.3     1  LIG1       -0.0374
     35 C           0.3738   -5.0836    2.1521 C.3     1  LIG1       -0.0545
     36 C          -2.3188   -3.6433    7.4719 C.3     1  LIG1       -0.0545
     37 C           0.3098   -6.5960    2.3012 C.3     1  LIG1       -0.0652
     38 C          -2.4416   -2.4383    8.3924 C.3     1  LIG1       -0.0652
     39 H          -0.4755    3.9799    5.1987 H       1  LIG1        0.0424
     40 H          -0.3950    1.2566    4.3263 H       1  LIG1        0.0858
     41 H          -2.4577    3.4353    7.0184 H       1  LIG1        0.0409
     42 H          -3.0240    1.4435    3.5719 H       1  LIG1        0.2042
     43 H          -1.7218    3.5723    2.8163 H       1  LIG1        0.0325
     44 H          -1.5734    1.9596    2.1891 H       1  LIG1        0.0325
     45 H          -4.2739    2.3442    5.1850 H       1  LIG1        0.0821
     46 H          -3.3642    1.4698    6.4203 H       1  LIG1        0.0821
     47 H          -3.4403   -0.4424    4.9356 H       1  LIG1        0.0913
     48 H          -1.8990   -0.1379    5.7782 H       1  LIG1        0.0913
     49 H          -2.2209    5.7625    7.1868 H       1  LIG1        0.0658
     50 H          -3.9071    4.0234    3.5880 H       1  LIG1        0.0658
     51 H           1.0444    3.7456    0.3053 H       1  LIG1        0.0270
     52 H          -0.6655    4.0474    0.5580 H       1  LIG1        0.0270
     53 H           1.1832    4.1736    3.8834 H       1  LIG1        0.0235
     54 H           0.1279    5.1287    2.8223 H       1  LIG1        0.0235
     55 H           1.7516    4.6649    2.3000 H       1  LIG1        0.0235
     56 H           1.6441    1.8371    3.4932 H       1  LIG1        0.0235
     57 H           2.2329    2.0757    1.8525 H       1  LIG1        0.0235
     58 H           0.9234    0.9229    2.1654 H       1  LIG1        0.0235
     59 H          -1.1192    1.5820    0.1576 H       1  LIG1        0.0263
     60 H           0.6073    1.3306   -0.0995 H       1  LIG1        0.0263
     61 H           0.7423   -2.6285    3.3643 H       1  LIG1        0.0464
     62 H          -0.5191   -2.4909    2.1455 H       1  LIG1        0.0464
     63 H          -0.7908   -1.7008    6.1791 H       1  LIG1        0.0464
     64 H          -0.1554   -3.2314    5.6693 H       1  LIG1        0.0464
     65 H          -1.1801    3.1636   -1.7692 H       1  LIG1        0.0230
     66 H          -0.5725    1.5669   -2.2394 H       1  LIG1        0.0230
     67 H           0.5592    2.9124   -2.0246 H       1  LIG1        0.0230
     68 H          -3.5245    9.9391    5.5730 H       1  LIG1        0.1166
     69 H          -4.9734    9.3623    6.4327 H       1  LIG1        0.1166
     70 H          -5.8550    7.1376    1.2038 H       1  LIG1        0.0660
     71 H          -4.5930    8.0196    2.0651 H       1  LIG1        0.0660
     72 H          -6.2188    7.7466    2.8189 H       1  LIG1        0.0660
     73 H          -1.5721   -4.6130    2.9744 H       1  LIG1        0.0280
     74 H          -0.2934   -4.7870    4.1691 H       1  LIG1        0.0280
     75 H          -2.4289   -4.1815    5.3999 H       1  LIG1        0.0280
     76 H          -3.1796   -2.6470    5.7677 H       1  LIG1        0.0280
     77 H           1.4137   -4.7605    2.2790 H       1  LIG1        0.0263
     78 H           0.0668   -4.8029    1.1383 H       1  LIG1        0.0263
     79 H          -1.4195   -4.2153    7.7263 H       1  LIG1        0.0263
     80 H          -3.1769   -4.3023    7.6524 H       1  LIG1        0.0263
     81 H           0.6605   -6.9056    3.2915 H       1  LIG1        0.0230
     82 H           0.9465   -7.0784    1.5531 H       1  LIG1        0.0230
     83 H          -0.7127   -6.9629    2.1692 H       1  LIG1        0.0230
     84 H          -1.5591   -1.7952    8.3339 H       1  LIG1        0.0230
     85 H          -2.5453   -2.7684    9.4310 H       1  LIG1        0.0230
     86 H          -3.3224   -1.8391    8.1394 H       1  LIG1        0.0230
@<TRIPOS>BOND
     1     1     2    1
     2     1     3    1
     3     1     4    1
     4     2     5    1
     5     2     6    1
     6     3     8    1
     7     3     7    1
     8     4    10   ar
     9     4     9   ar
    10     5     8    1
    11     5    11    1
    12     6    12    1
    13     7    14   ar
    14     7    13   ar
    15    11    15    1
    16    12    18    1
    17    12    17    1
    18    12    16    1
    19    13    19   ar
    20    14    20   ar
    21    15    22    2
    22    15    21   am
    23    16    23    1
    24    19    25    1
    25    19    24   ar
    26    20    24   ar
    27    20    26    1
    28    21    28    1
    29    21    27    1
    30    23    29    1
    31    24    30    1
    32    25    31    1
    33    26    32    1
    34    27    33    1
    35    28    34    1
    36    30    31    1
    37    33    35    1
    38    34    36    1
    39    35    37    1
    40    36    38    1
    41     1    39    1
    42     2    40    1
    43     3    41    1
    44     5    42    1
    45     6    43    1
    46     6    44    1
    47     8    45    1
    48     8    46    1
    49    11    47    1
    50    11    48    1
    51    13    49    1
    52    14    50    1
    53    16    51    1
    54    16    52    1
    55    17    53    1
    56    17    54    1
    57    17    55    1
    58    18    56    1
    59    18    57    1
    60    18    58    1
    61    23    59    1
    62    23    60    1
    63    27    61    1
    64    27    62    1
    65    28    63    1
    66    28    64    1
    67    29    65    1
    68    29    66    1
    69    29    67    1
    70    31    68    1
    71    31    69    1
    72    32    70    1
    73    32    71    1
    74    32    72    1
    75    33    73    1
    76    33    74    1
    77    34    75    1
    78    34    76    1
    79    35    77    1
    80    35    78    1
    81    36    79    1
    82    36    80    1
    83    37    81    1
    84    37    82    1
    85    37    83    1
    86    38    84    1
    87    38    85    1
    88    38    86    1
@<TRIPOS>MOLECULE
01012527H
 86 88 0 0 0
SMALL
GASTEIGER

@<TRIPOS>ATOM
      1 C          -0.8886    3.0511    5.4475 C.3     1  LIG1        0.0531
      2 C          -1.0786    2.1160    4.2628 C.3     1  LIG1       -0.0111
      3 C          -2.2567    3.4031    6.0130 C.3     1  LIG1        0.0375
      4 C          -0.0839    2.1337    6.3593 C.2     1  LIG1        0.0509
      5 N          -2.5216    1.5674    4.4288 N.4     1  LIG1        0.2448
      6 C          -1.0046    2.7234    2.8430 C.3     1  LIG1       -0.0039
      7 C          -2.6991    4.7765    5.5239 C.ar    1  LIG1       -0.0313
      8 C          -3.1387    2.2091    5.6649 C.3     1  LIG1       -0.0234
      9 O          -0.7703    1.3230    7.0438 O.co2   1  LIG1       -0.5493
     10 O           1.1595    2.2147    6.2095 O.co2   1  LIG1       -0.5493
     11 C          -2.5176    0.0354    4.5150 C.3     1  LIG1        0.0465
     12 C           0.3845    3.1281    2.2406 C.3     1  LIG1       -0.0298
     13 C          -3.3974    4.9991    4.3337 C.ar    1  LIG1       -0.0122
     14 C          -2.3010    5.9025    6.2918 C.ar    1  LIG1       -0.0124
     15 C          -3.9245   -0.5842    4.5394 C.2     1  LIG1        0.2608
     16 C           0.1439    3.3450    0.7080 C.3     1  LIG1       -0.0479
     17 C           0.9054    4.4275    2.8762 C.3     1  LIG1       -0.0596
     18 C           1.4257    2.0162    2.4536 C.3     1  LIG1       -0.0596
     19 C          -3.6123    6.3072    3.9375 C.ar    1  LIG1        0.1702
     20 C          -2.5604    7.2223    5.8911 C.ar    1  LIG1        0.1656
     21 N          -4.0324   -1.9749    4.4859 N.am    1  LIG1       -0.2971
     22 O          -4.9162    0.1501    4.5979 O.2     1  LIG1       -0.2697
     23 C           1.3458    3.8036   -0.1274 C.3     1  LIG1       -0.0554
     24 C          -3.2080    7.3949    4.6847 C.ar    1  LIG1        0.2075
     25 O          -4.2135    6.6644    2.7678 O.3     1  LIG1       -0.4525
     26 O          -2.1084    8.1729    6.7575 O.3     1  LIG1       -0.4913
     27 C          -2.9418   -2.8647    4.0547 C.3     1  LIG1        0.0148
     28 C          -5.3694   -2.5659    4.6337 C.3     1  LIG1        0.0148
     29 C           0.9815    3.9104   -1.6025 C.3     1  LIG1       -0.0653
     30 O          -3.5218    8.5663    4.0634 O.3     1  LIG1       -0.4489
     31 C          -4.0794    8.0965    2.8235 C.3     1  LIG1        0.2334
     32 C          -2.3387    9.5324    6.4155 C.3     1  LIG1        0.0790
     33 C          -1.9947   -3.2845    5.1784 C.3     1  LIG1       -0.0374
     34 C          -5.9146   -2.5527    6.0675 C.3     1  LIG1       -0.0374
     35 C          -0.8264   -4.1389    4.6794 C.3     1  LIG1       -0.0545
     36 C          -5.1103   -3.4322    7.0239 C.3     1  LIG1       -0.0545
     37 C          -1.2540   -5.5298    4.2342 C.3     1  LIG1       -0.0652
     38 C          -5.8040   -3.5967    8.3666 C.3     1  LIG1       -0.0652
     39 H          -0.2910    3.9376    5.2372 H       1  LIG1        0.0424
     40 H          -0.4233    1.2369    4.2754 H       1  LIG1        0.0858
     41 H          -2.2290    3.4678    7.1098 H       1  LIG1        0.0409
     42 H          -3.1179    1.8235    3.6365 H       1  LIG1        0.2042
     43 H          -1.6761    3.5844    2.7695 H       1  LIG1        0.0325
     44 H          -1.4320    1.9682    2.1655 H       1  LIG1        0.0325
     45 H          -4.1712    2.4805    5.4244 H       1  LIG1        0.0821
     46 H          -3.1511    1.4657    6.4683 H       1  LIG1        0.0821
     47 H          -1.9709   -0.2446    5.4165 H       1  LIG1        0.0913
     48 H          -1.9917   -0.2985    3.6176 H       1  LIG1        0.0913
     49 H          -3.7407    4.1968    3.6941 H       1  LIG1        0.0658
     50 H          -1.7521    5.7499    7.2227 H       1  LIG1        0.0658
     51 H          -0.6633    4.0791    0.5784 H       1  LIG1        0.0270
     52 H          -0.2277    2.4050    0.2763 H       1  LIG1        0.0270
     53 H           1.2141    4.2761    3.9126 H       1  LIG1        0.0235
     54 H           0.1446    5.2152    2.8506 H       1  LIG1        0.0235
     55 H           1.7950    4.8062    2.3641 H       1  LIG1        0.0235
     56 H           1.6132    1.8366    3.5163 H       1  LIG1        0.0235
     57 H           2.3936    2.2779    2.0141 H       1  LIG1        0.0235
     58 H           1.0952    1.0732    2.0053 H       1  LIG1        0.0235
     59 H           2.1792    3.1018   -0.0273 H       1  LIG1        0.0263
     60 H           1.6955    4.7847    0.2079 H       1  LIG1        0.0263
     61 H          -2.3771   -2.3561    3.2670 H       1  LIG1        0.0464
     62 H          -3.3827   -3.7472    3.5794 H       1  LIG1        0.0464
     63 H          -5.3673   -3.5929    4.2516 H       1  LIG1        0.0464
     64 H          -6.0566   -1.9984    3.9938 H       1  LIG1        0.0464
     65 H           0.6729    2.9390   -2.0020 H       1  LIG1        0.0230
     66 H           1.8442    4.2564   -2.1807 H       1  LIG1        0.0230
     67 H           0.1635    4.6216   -1.7546 H       1  LIG1        0.0230
     68 H          -5.0676    8.5493    2.6872 H       1  LIG1        0.1166
     69 H          -3.4293    8.4210    2.0018 H       1  LIG1        0.1166
     70 H          -1.9396   10.1495    7.2268 H       1  LIG1        0.0660
     71 H          -3.4089    9.7483    6.3371 H       1  LIG1        0.0660
     72 H          -1.8015    9.8056    5.5019 H       1  LIG1        0.0660
     73 H          -2.5393   -3.8423    5.9447 H       1  LIG1        0.0280
     74 H          -1.5849   -2.3988    5.6736 H       1  LIG1        0.0280
     75 H          -6.9505   -2.9129    6.0360 H       1  LIG1        0.0280
     76 H          -5.9477   -1.5288    6.4566 H       1  LIG1        0.0280
     77 H          -0.0997   -4.2448    5.4938 H       1  LIG1        0.0263
     78 H          -0.3100   -3.6307    3.8568 H       1  LIG1        0.0263
     79 H          -4.1289   -2.9806    7.1986 H       1  LIG1        0.0263
     80 H          -4.9508   -4.4225    6.5819 H       1  LIG1        0.0263
     81 H          -1.7948   -6.0475    5.0331 H       1  LIG1        0.0230
     82 H          -0.3752   -6.1297    3.9774 H       1  LIG1        0.0230
     83 H          -1.8985   -5.4896    3.3515 H       1  LIG1        0.0230
     84 H          -5.9450   -2.6284    8.8567 H       1  LIG1        0.0230
     85 H          -5.2001   -4.2273    9.0277 H       1  LIG1        0.0230
     86 H          -6.7833   -4.0710    8.2486 H       1  LIG1        0.0230
@<TRIPOS>BOND
     1     1     2    1
     2     1     3    1
     3     1     4    1
     4     2     5    1
     5     2     6    1
     6     3     8    1
     7     3     7    1
     8     4    10   ar
     9     4     9   ar
    10     5     8    1
    11     5    11    1
    12     6    12    1
    13     7    14   ar
    14     7    13   ar
    15    11    15    1
    16    12    18    1
    17    12    17    1
    18    12    16    1
    19    13    19   ar
    20    14    20   ar
    21    15    22    2
    22    15    21   am
    23    16    23    1
    24    19    25    1
    25    19    24   ar
    26    20    24   ar
    27    20    26    1
    28    21    28    1
    29    21    27    1
    30    23    29    1
    31    24    30    1
    32    25    31    1
    33    26    32    1
    34    27    33    1
    35    28    34    1
    36    30    31    1
    37    33    35    1
    38    34    36    1
    39    35    37    1
    40    36    38    1
    41     1    39    1
    42     2    40    1
    43     3    41    1
    44     5    42    1
    45     6    43    1
    46     6    44    1
    47     8    45    1
    48     8    46    1
    49    11    47    1
    50    11    48    1
    51    13    49    1
    52    14    50    1
    53    16    51    1
    54    16    52    1
    55    17    53    1
    56    17    54    1
    57    17    55    1
    58    18    56    1
    59    18    57    1
    60    18    58    1
    61    23    59    1
    62    23    60    1
    63    27    61    1
    64    27    62    1
    65    28    63    1
    66    28    64    1
    67    29    65    1
    68    29    66    1
    69    29    67    1
    70    31    68    1
    71    31    69    1
    72    32    70    1
    73    32    71    1
    74    32    72    1
    75    33    73    1
    76    33    74    1
    77    34    75    1
    78    34    76    1
    79    35    77    1
    80    35    78    1
    81    36    79    1
    82    36    80    1
    83    37    81    1
    84    37    82    1
    85    37    83    1
    86    38    84    1
    87    38    85    1
    88    38    86    1
@<TRIPOS>MOLECULE
01012527H
 86 88 0 0 0
SMALL
GASTEIGER

@<TRIPOS>ATOM
      1 C          -0.9059    3.0330    5.5060 C.3     1  LIG1        0.0531
      2 C          -1.0899    2.1201    4.3017 C.3     1  LIG1       -0.0111
      3 C          -2.2806    3.4061    6.0420 C.3     1  LIG1        0.0375
      4 C          -0.1343    2.0829    6.4127 C.2     1  LIG1        0.0509
      5 N          -2.5313    1.5641    4.4608 N.4     1  LIG1        0.2448
      6 C          -1.0201    2.7445    2.8885 C.3     1  LIG1       -0.0039
      7 C          -2.7020    4.7810    5.5408 C.ar    1  LIG1       -0.0313
      8 C          -3.1673    2.2188    5.6819 C.3     1  LIG1       -0.0234
      9 O           1.1071    2.0677    6.2108 O.co2   1  LIG1       -0.5493
     10 O          -0.8443    1.3396    7.1424 O.co2   1  LIG1       -0.5493
     11 C          -2.5192    0.0339    4.5708 C.3     1  LIG1        0.0465
     12 C           0.3667    3.1726    2.3017 C.3     1  LIG1       -0.0298
     13 C          -3.4044    5.0030    4.3518 C.ar    1  LIG1       -0.0122
     14 C          -2.2909    5.9093    6.2978 C.ar    1  LIG1       -0.0124
     15 C          -3.9230   -0.5920    4.5688 C.2     1  LIG1        0.2608
     16 C           0.8601    4.4854    2.9680 C.3     1  LIG1       -0.0479
     17 C           1.4091    2.0548    2.4756 C.3     1  LIG1       -0.0596
     18 C           0.1557    3.3917    0.7844 C.3     1  LIG1       -0.0596
     19 C          -3.6090    6.3101    3.9465 C.ar    1  LIG1        0.1702
     20 C          -2.5424    7.2287    5.8896 C.ar    1  LIG1        0.1656
     21 N          -4.0273   -1.9817    4.4837 N.am    1  LIG1       -0.2971
     22 O          -4.9174    0.1388    4.6288 O.2     1  LIG1       -0.2697
     23 C           2.0474    5.1914    2.3021 C.3     1  LIG1       -0.0554
     24 C          -3.1929    7.3991    4.6844 C.ar    1  LIG1        0.2075
     25 O          -4.2123    6.6639    2.7767 O.3     1  LIG1       -0.4525
     26 O          -2.0817    8.1818    6.7488 O.3     1  LIG1       -0.4913
     27 C          -2.9256   -2.8609    4.0588 C.3     1  LIG1        0.0148
     28 C          -5.3710   -2.5719    4.5677 C.3     1  LIG1        0.0148
     29 C           2.4110    6.4637    3.0568 C.3     1  LIG1       -0.0653
     30 O          -3.5003    8.5687    4.0567 O.3     1  LIG1       -0.4489
     31 C          -4.0680    8.0953    2.8227 C.3     1  LIG1        0.2334
     32 C          -2.3285    9.5399    6.4119 C.3     1  LIG1        0.0790
     33 C          -1.9518   -3.2417    5.1745 C.3     1  LIG1       -0.0374
     34 C          -5.9514   -2.6252    5.9861 C.3     1  LIG1       -0.0374
     35 C          -0.8068   -4.1316    4.6830 C.3     1  LIG1       -0.0545
     36 C          -5.2011   -3.5134    6.9800 C.3     1  LIG1       -0.0545
     37 C          -1.2627   -5.5241    4.2722 C.3     1  LIG1       -0.0652
     38 C          -5.0952   -4.9697    6.5516 C.3     1  LIG1       -0.0652
     39 H          -0.2861    3.9107    5.3289 H       1  LIG1        0.0424
     40 H          -0.4306    1.2438    4.2971 H       1  LIG1        0.0858
     41 H          -2.2734    3.4762    7.1387 H       1  LIG1        0.0409
     42 H          -3.1206    1.8034    3.6581 H       1  LIG1        0.2042
     43 H          -1.7030    3.5958    2.8166 H       1  LIG1        0.0325
     44 H          -1.4342    1.9906    2.2013 H       1  LIG1        0.0325
     45 H          -4.1923    2.4975    5.4191 H       1  LIG1        0.0821
     46 H          -3.2039    1.4800    6.4888 H       1  LIG1        0.0821
     47 H          -1.9956   -0.2276    5.4911 H       1  LIG1        0.0913
     48 H          -1.9679   -0.3110    3.6930 H       1  LIG1        0.0913
     49 H          -3.7599    4.1997    3.7196 H       1  LIG1        0.0658
     50 H          -1.7422    5.7582    7.2291 H       1  LIG1        0.0658
     51 H           1.1647    4.2698    3.9960 H       1  LIG1        0.0270
     52 H           0.0243    5.1954    3.0226 H       1  LIG1        0.0270
     53 H           1.0274    1.0983    2.1006 H       1  LIG1        0.0235
     54 H           1.6847    1.9187    3.5254 H       1  LIG1        0.0235
     55 H           2.3303    2.2753    1.9255 H       1  LIG1        0.0235
     56 H          -0.2643    2.4968    0.3096 H       1  LIG1        0.0235
     57 H           1.0960    3.6054    0.2656 H       1  LIG1        0.0235
     58 H          -0.5339    4.2226    0.5982 H       1  LIG1        0.0235
     59 H           1.8101    5.4652    1.2695 H       1  LIG1        0.0263
     60 H           2.9191    4.5291    2.2800 H       1  LIG1        0.0263
     61 H          -2.3831   -2.3580    3.2515 H       1  LIG1        0.0464
     62 H          -3.3567   -3.7615    3.6104 H       1  LIG1        0.0464
     63 H          -5.3754   -3.5679    4.1140 H       1  LIG1        0.0464
     64 H          -6.0402   -1.9609    3.9483 H       1  LIG1        0.0464
     65 H           1.5798    7.1766    3.0412 H       1  LIG1        0.0230
     66 H           3.2788    6.9446    2.5950 H       1  LIG1        0.0230
     67 H           2.6565    6.2468    4.1015 H       1  LIG1        0.0230
     68 H          -5.0538    8.5541    2.6889 H       1  LIG1        0.1166
     69 H          -3.4200    8.4101    1.9957 H       1  LIG1        0.1166
     70 H          -1.9332   10.1591    7.2234 H       1  LIG1        0.0660
     71 H          -3.4013    9.7448    6.3378 H       1  LIG1        0.0660
     72 H          -1.7976    9.8212    5.4971 H       1  LIG1        0.0660
     73 H          -2.4774   -3.7547    5.9834 H       1  LIG1        0.0280
     74 H          -1.5157   -2.3423    5.6182 H       1  LIG1        0.0280
     75 H          -6.9872   -2.9813    5.9168 H       1  LIG1        0.0280
     76 H          -6.0019   -1.6126    6.4032 H       1  LIG1        0.0280
     77 H          -0.0738   -4.2325    5.4923 H       1  LIG1        0.0263
     78 H          -0.2899   -3.6512    3.8443 H       1  LIG1        0.0263
     79 H          -5.7278   -3.4762    7.9413 H       1  LIG1        0.0263
     80 H          -4.2043   -3.1032    7.1671 H       1  LIG1        0.0263
     81 H          -1.8152   -6.0112    5.0819 H       1  LIG1        0.0230
     82 H          -0.3958   -6.1475    4.0311 H       1  LIG1        0.0230
     83 H          -1.9038   -5.4932    3.3865 H       1  LIG1        0.0230
     84 H          -6.0869   -5.4058    6.3977 H       1  LIG1        0.0230
     85 H          -4.5853   -5.5521    7.3257 H       1  LIG1        0.0230
     86 H          -4.5237   -5.0833    5.6266 H       1  LIG1        0.0230
@<TRIPOS>BOND
     1     1     2    1
     2     1     3    1
     3     1     4    1
     4     2     5    1
     5     2     6    1
     6     3     8    1
     7     3     7    1
     8     4    10   ar
     9     4     9   ar
    10     5     8    1
    11     5    11    1
    12     6    12    1
    13     7    14   ar
    14     7    13   ar
    15    11    15    1
    16    12    18    1
    17    12    17    1
    18    12    16    1
    19    13    19   ar
    20    14    20   ar
    21    15    22    2
    22    15    21   am
    23    16    23    1
    24    19    25    1
    25    19    24   ar
    26    20    24   ar
    27    20    26    1
    28    21    28    1
    29    21    27    1
    30    23    29    1
    31    24    30    1
    32    25    31    1
    33    26    32    1
    34    27    33    1
    35    28    34    1
    36    30    31    1
    37    33    35    1
    38    34    36    1
    39    35    37    1
    40    36    38    1
    41     1    39    1
    42     2    40    1
    43     3    41    1
    44     5    42    1
    45     6    43    1
    46     6    44    1
    47     8    45    1
    48     8    46    1
    49    11    47    1
    50    11    48    1
    51    13    49    1
    52    14    50    1
    53    16    51    1
    54    16    52    1
    55    17    53    1
    56    17    54    1
    57    17    55    1
    58    18    56    1
    59    18    57    1
    60    18    58    1
    61    23    59    1
    62    23    60    1
    63    27    61    1
    64    27    62    1
    65    28    63    1
    66    28    64    1
    67    29    65    1
    68    29    66    1
    69    29    67    1
    70    31    68    1
    71    31    69    1
    72    32    70    1
    73    32    71    1
    74    32    72    1
    75    33    73    1
    76    33    74    1
    77    34    75    1
    78    34    76    1
    79    35    77    1
    80    35    78    1
    81    36    79    1
    82    36    80    1
    83    37    81    1
    84    37    82    1
    85    37    83    1
    86    38    84    1
    87    38    85    1
    88    38    86    1
@<TRIPOS>MOLECULE
01012527H
 86 88 0 0 0
SMALL
GASTEIGER

@<TRIPOS>ATOM
      1 C          -0.8320    3.0438    5.4285 C.3     1  LIG1        0.0531
      2 C          -1.0612    2.1313    4.2326 C.3     1  LIG1       -0.0111
      3 C          -2.1860    3.3697    6.0449 C.3     1  LIG1        0.0375
      4 C           0.0081    2.1282    6.3073 C.2     1  LIG1        0.0509
      5 N          -2.4972    1.5854    4.4236 N.4     1  LIG1        0.2448
      6 C          -1.0337    2.7785    2.8324 C.3     1  LIG1       -0.0039
      7 C          -2.6707    4.7321    5.5606 C.ar    1  LIG1       -0.0313
      8 C          -3.0530    2.1569    5.7201 C.3     1  LIG1       -0.0234
      9 O          -0.6347    1.2231    6.9061 O.co2   1  LIG1       -0.5493
     10 O           1.2451    2.3230    6.2287 O.co2   1  LIG1       -0.5493
     11 C          -2.5076    0.0579    4.3977 C.3     1  LIG1        0.0465
     12 C           0.3391    3.1614    2.2035 C.3     1  LIG1       -0.0298
     13 C          -3.4790    4.9250    4.4358 C.ar    1  LIG1       -0.0122
     14 C          -2.2033    5.8776    6.2571 C.ar    1  LIG1       -0.0124
     15 C          -3.9212   -0.5387    4.4020 C.2     1  LIG1        0.2608
     16 C           0.1616    3.3339    0.6591 C.3     1  LIG1       -0.0479
     17 C           0.8910    4.4681    2.7992 C.3     1  LIG1       -0.0596
     18 C           1.3846    2.0488    2.4141 C.3     1  LIG1       -0.0596
     19 C          -3.7357    6.2213    4.0288 C.ar    1  LIG1        0.1702
     20 C          -2.5056    7.1867    5.8493 C.ar    1  LIG1        0.1656
     21 N          -4.0413   -1.9253    4.3219 N.am    1  LIG1       -0.2971
     22 O          -4.8994    0.2126    4.4536 O.2     1  LIG1       -0.2697
     23 C          -0.8798    4.3699    0.2195 C.3     1  LIG1       -0.0554
     24 C          -3.2668    7.3275    4.7059 C.ar    1  LIG1        0.2075
     25 O          -4.4478    6.5461    2.9141 O.3     1  LIG1       -0.4525
     26 O          -1.9772    8.1617    6.6427 O.3     1  LIG1       -0.4913
     27 C          -2.9208   -2.8418    4.0672 C.3     1  LIG1        0.0148
     28 C          -5.3713   -2.5238    4.4784 C.3     1  LIG1        0.0148
     29 C          -0.9579    4.4590   -1.2982 C.3     1  LIG1       -0.0653
     30 O          -3.6416    8.4829    4.0872 O.3     1  LIG1       -0.4489
     31 C          -4.3302    7.9817    2.9287 C.3     1  LIG1        0.2334
     32 C          -2.3087    9.5081    6.3313 C.3     1  LIG1        0.0790
     33 C          -2.2514   -3.3329    5.3489 C.3     1  LIG1       -0.0374
     34 C          -6.0209   -2.9400    3.1540 C.3     1  LIG1       -0.0374
     35 C          -1.0045   -4.1803    5.0718 C.3     1  LIG1       -0.0545
     36 C          -6.2917   -1.7639    2.2157 C.3     1  LIG1       -0.0545
     37 C          -1.3177   -5.5179    4.4200 C.3     1  LIG1       -0.0652
     38 C          -6.9918   -2.2182    0.9445 C.3     1  LIG1       -0.0652
     39 H          -0.2505    3.9390    5.1994 H       1  LIG1        0.0424
     40 H          -0.4048    1.2536    4.2130 H       1  LIG1        0.0858
     41 H          -2.1223    3.4367    7.1396 H       1  LIG1        0.0409
     42 H          -3.1236    1.8996    3.6764 H       1  LIG1        0.2042
     43 H          -1.6833    3.6582    2.8270 H       1  LIG1        0.0325
     44 H          -1.5059    2.0605    2.1446 H       1  LIG1        0.0325
     45 H          -4.1087    2.4003    5.5593 H       1  LIG1        0.0821
     46 H          -2.9915    1.3829    6.4911 H       1  LIG1        0.0821
     47 H          -1.9360   -0.2987    5.2569 H       1  LIG1        0.0913
     48 H          -2.0159   -0.2151    3.4591 H       1  LIG1        0.0913
     49 H          -3.8792    4.1090    3.8502 H       1  LIG1        0.0658
     50 H          -1.5672    5.7495    7.1353 H       1  LIG1        0.0658
     51 H          -0.1114    2.3620    0.2232 H       1  LIG1        0.0270
     52 H           1.1298    3.6002    0.2139 H       1  LIG1        0.0270
     53 H           1.3012    4.3154    3.8012 H       1  LIG1        0.0235
     54 H           0.1188    5.2415    2.8651 H       1  LIG1        0.0235
     55 H           1.7084    4.8653    2.1865 H       1  LIG1        0.0235
     56 H           1.6508    1.9344    3.4692 H       1  LIG1        0.0235
     57 H           2.3124    2.2719    1.8744 H       1  LIG1        0.0235
     58 H           1.0133    1.0833    2.0523 H       1  LIG1        0.0235
     59 H          -0.6305    5.3575    0.6194 H       1  LIG1        0.0263
     60 H          -1.8722    4.1024    0.5979 H       1  LIG1        0.0263
     61 H          -2.1848   -2.3369    3.4351 H       1  LIG1        0.0464
     62 H          -3.2972   -3.6862    3.4836 H       1  LIG1        0.0464
     63 H          -6.0334   -1.8262    5.0045 H       1  LIG1        0.0464
     64 H          -5.2665   -3.4015    5.1275 H       1  LIG1        0.0464
     65 H           0.0025    4.7676   -1.7231 H       1  LIG1        0.0230
     66 H          -1.7133    5.1922   -1.5963 H       1  LIG1        0.0230
     67 H          -1.2325    3.4931   -1.7343 H       1  LIG1        0.0230
     68 H          -5.3349    8.4180    2.8991 H       1  LIG1        0.1166
     69 H          -3.7843    8.2984    2.0314 H       1  LIG1        0.1166
     70 H          -1.8645   10.1447    7.1027 H       1  LIG1        0.0660
     71 H          -3.3910    9.6699    6.3578 H       1  LIG1        0.0660
     72 H          -1.8772    9.8070    5.3710 H       1  LIG1        0.0660
     73 H          -2.9643   -3.9067    5.9518 H       1  LIG1        0.0280
     74 H          -1.9525   -2.4746    5.9631 H       1  LIG1        0.0280
     75 H          -6.9697   -3.4422    3.3828 H       1  LIG1        0.0280
     76 H          -5.3935   -3.6774    2.6407 H       1  LIG1        0.0280
     77 H          -0.4899   -4.3674    6.0204 H       1  LIG1        0.0263
     78 H          -0.3062   -3.6201    4.4377 H       1  LIG1        0.0263
     79 H          -5.3509   -1.2743    1.9407 H       1  LIG1        0.0263
     80 H          -6.9148   -1.0179    2.7224 H       1  LIG1        0.0263
     81 H          -2.0148   -6.0988    5.0316 H       1  LIG1        0.0230
     82 H          -0.3995   -6.1042    4.3043 H       1  LIG1        0.0230
     83 H          -1.7546   -5.3911    3.4239 H       1  LIG1        0.0230
     84 H          -6.3813   -2.9453    0.3997 H       1  LIG1        0.0230
     85 H          -7.1711   -1.3635    0.2850 H       1  LIG1        0.0230
     86 H          -7.9573   -2.6810    1.1717 H       1  LIG1        0.0230
@<TRIPOS>BOND
     1     1     2    1
     2     1     3    1
     3     1     4    1
     4     2     5    1
     5     2     6    1
     6     3     8    1
     7     3     7    1
     8     4    10   ar
     9     4     9   ar
    10     5     8    1
    11     5    11    1
    12     6    12    1
    13     7    14   ar
    14     7    13   ar
    15    11    15    1
    16    12    18    1
    17    12    17    1
    18    12    16    1
    19    13    19   ar
    20    14    20   ar
    21    15    22    2
    22    15    21   am
    23    16    23    1
    24    19    25    1
    25    19    24   ar
    26    20    24   ar
    27    20    26    1
    28    21    28    1
    29    21    27    1
    30    23    29    1
    31    24    30    1
    32    25    31    1
    33    26    32    1
    34    27    33    1
    35    28    34    1
    36    30    31    1
    37    33    35    1
    38    34    36    1
    39    35    37    1
    40    36    38    1
    41     1    39    1
    42     2    40    1
    43     3    41    1
    44     5    42    1
    45     6    43    1
    46     6    44    1
    47     8    45    1
    48     8    46    1
    49    11    47    1
    50    11    48    1
    51    13    49    1
    52    14    50    1
    53    16    51    1
    54    16    52    1
    55    17    53    1
    56    17    54    1
    57    17    55    1
    58    18    56    1
    59    18    57    1
    60    18    58    1
    61    23    59    1
    62    23    60    1
    63    27    61    1
    64    27    62    1
    65    28    63    1
    66    28    64    1
    67    29    65    1
    68    29    66    1
    69    29    67    1
    70    31    68    1
    71    31    69    1
    72    32    70    1
    73    32    71    1
    74    32    72    1
    75    33    73    1
    76    33    74    1
    77    34    75    1
    78    34    76    1
    79    35    77    1
    80    35    78    1
    81    36    79    1
    82    36    80    1
    83    37    81    1
    84    37    82    1
    85    37    83    1
    86    38    84    1
    87    38    85    1
    88    38    86    1
@<TRIPOS>MOLECULE
01012527H
 86 88 0 0 0
SMALL
GASTEIGER

@<TRIPOS>ATOM
      1 C          -0.8492    3.0503    5.4646 C.3     1  LIG1        0.0531
      2 C          -1.0787    2.0979    4.3011 C.3     1  LIG1       -0.0111
      3 C          -2.2008    3.4513    6.0364 C.3     1  LIG1        0.0375
      4 C          -0.0707    2.1209    6.3904 C.2     1  LIG1        0.0509
      5 N          -2.5151    1.5582    4.5288 N.4     1  LIG1        0.2448
      6 C          -1.0564    2.6641    2.8604 C.3     1  LIG1       -0.0039
      7 C          -2.6375    4.8196    5.5339 C.ar    1  LIG1       -0.0313
      8 C          -3.1149    2.2713    5.7357 C.3     1  LIG1       -0.0234
      9 O           1.1630    2.0724    6.1543 O.co2   1  LIG1       -0.5493
     10 O          -0.7714    1.4209    7.1704 O.co2   1  LIG1       -0.5493
     11 C          -2.5016    0.0352    4.7120 C.3     1  LIG1        0.0465
     12 C           0.3075    3.0591    2.2120 C.3     1  LIG1       -0.0298
     13 C          -3.3545    5.0358    4.3523 C.ar    1  LIG1       -0.0122
     14 C          -2.2415    5.9471    6.2990 C.ar    1  LIG1       -0.0124
     15 C          -3.9063   -0.5743    4.8220 C.2     1  LIG1        0.2608
     16 C           0.1078    3.2719    0.6725 C.3     1  LIG1       -0.0479
     17 C           0.8078    4.4047    2.7777 C.3     1  LIG1       -0.0596
     18 C           1.3914    1.9969    2.4576 C.3     1  LIG1       -0.0596
     19 C          -3.5923    6.3409    3.9624 C.ar    1  LIG1        0.1702
     20 C          -2.5472    7.2591    5.9170 C.ar    1  LIG1        0.1656
     21 N          -4.0831   -1.9156    4.4955 N.am    1  LIG1       -0.2971
     22 O          -4.8562    0.1415    5.1616 O.2     1  LIG1       -0.2697
     23 C          -0.1946    2.0161   -0.1584 C.3     1  LIG1       -0.0554
     24 C          -3.2044    7.4299    4.7161 C.ar    1  LIG1        0.2075
     25 O          -4.1996    6.7002    2.7959 O.3     1  LIG1       -0.4525
     26 O          -2.1062    8.2257    6.7719 O.3     1  LIG1       -0.4913
     27 C          -3.0152   -2.8197    4.0442 C.3     1  LIG1        0.0148
     28 C          -5.4345   -2.4780    4.5962 C.3     1  LIG1        0.0148
     29 C          -0.3572    2.3561   -1.6342 C.3     1  LIG1       -0.0653
     30 O          -3.5273    8.6019    4.1020 O.3     1  LIG1       -0.4489
     31 C          -4.0404    8.1309    2.8429 C.3     1  LIG1        0.2334
     32 C          -2.8162    9.4577    6.7412 C.3     1  LIG1        0.0790
     33 C          -2.1160   -3.2826    5.1935 C.3     1  LIG1       -0.0374
     34 C          -6.2420   -2.3460    3.2962 C.3     1  LIG1       -0.0374
     35 C          -0.9462   -4.1517    4.7259 C.3     1  LIG1       -0.0545
     36 C          -6.6188   -0.9006    2.9565 C.3     1  LIG1       -0.0545
     37 C          -1.3754   -5.5339    4.2612 C.3     1  LIG1       -0.0652
     38 C          -7.5432   -0.8124    1.7538 C.3     1  LIG1       -0.0652
     39 H          -0.2226    3.9115    5.2351 H       1  LIG1        0.0424
     40 H          -0.4238    1.2181    4.3060 H       1  LIG1        0.0858
     41 H          -2.1565    3.5396    7.1309 H       1  LIG1        0.0409
     42 H          -3.1245    1.7638    3.7329 H       1  LIG1        0.2042
     43 H          -1.7391    3.5141    2.7768 H       1  LIG1        0.0325
     44 H          -1.4993    1.8819    2.2315 H       1  LIG1        0.0325
     45 H          -4.1383    2.5612    5.4777 H       1  LIG1        0.0821
     46 H          -3.1490    1.5670    6.5727 H       1  LIG1        0.0821
     47 H          -1.9281   -0.1940    5.6113 H       1  LIG1        0.0913
     48 H          -1.9960   -0.3466    3.8234 H       1  LIG1        0.0913
     49 H          -3.6982    4.2295    3.7170 H       1  LIG1        0.0658
     50 H          -1.6786    5.8000    7.2224 H       1  LIG1        0.0658
     51 H           1.0162    3.7298    0.2570 H       1  LIG1        0.0270
     52 H          -0.6976    4.0025    0.5171 H       1  LIG1        0.0270
     53 H           1.1872    4.3063    3.7970 H       1  LIG1        0.0235
     54 H           0.0128    5.1587    2.7734 H       1  LIG1        0.0235
     55 H           1.6391    4.8000    2.1820 H       1  LIG1        0.0235
     56 H           1.6900    1.9614    3.5094 H       1  LIG1        0.0235
     57 H           2.2947    2.2169    1.8769 H       1  LIG1        0.0235
     58 H           1.0469    0.9952    2.1810 H       1  LIG1        0.0235
     59 H          -1.1119    1.5292    0.1845 H       1  LIG1        0.0263
     60 H           0.6186    1.2893   -0.0621 H       1  LIG1        0.0263
     61 H          -2.4230   -2.3069    3.2807 H       1  LIG1        0.0464
     62 H          -3.4782   -3.6799    3.5482 H       1  LIG1        0.0464
     63 H          -5.9741   -1.9901    5.4166 H       1  LIG1        0.0464
     64 H          -5.3440   -3.5356    4.8712 H       1  LIG1        0.0464
     65 H          -1.1828    3.0583   -1.7868 H       1  LIG1        0.0230
     66 H          -0.5718    1.4498   -2.2096 H       1  LIG1        0.0230
     67 H           0.5565    2.8043   -2.0372 H       1  LIG1        0.0230
     68 H          -5.0118    8.6014    2.6587 H       1  LIG1        0.1166
     69 H          -3.3481    8.4334    2.0473 H       1  LIG1        0.1166
     70 H          -2.5269   10.0266    7.6304 H       1  LIG1        0.0660
     71 H          -3.8996    9.3012    6.7878 H       1  LIG1        0.0660
     72 H          -2.5340   10.0511    5.8672 H       1  LIG1        0.0660
     73 H          -2.7110   -3.8209    5.9409 H       1  LIG1        0.0280
     74 H          -1.6972   -2.4137    5.7105 H       1  LIG1        0.0280
     75 H          -7.1620   -2.9331    3.4074 H       1  LIG1        0.0280
     76 H          -5.6811   -2.7829    2.4616 H       1  LIG1        0.0280
     77 H          -0.2445   -4.2699    5.5601 H       1  LIG1        0.0263
     78 H          -0.3985   -3.6453    3.9223 H       1  LIG1        0.0263
     79 H          -5.7178   -0.3187    2.7353 H       1  LIG1        0.0263
     80 H          -7.1146   -0.4333    3.8153 H       1  LIG1        0.0263
     81 H          -1.9335   -6.0543    5.0459 H       1  LIG1        0.0230
     82 H          -0.4955   -6.1377    4.0162 H       1  LIG1        0.0230
     83 H          -2.0029   -5.4808    3.3670 H       1  LIG1        0.0230
     84 H          -7.0707   -1.2392    0.8638 H       1  LIG1        0.0230
     85 H          -7.7824    0.2350    1.5419 H       1  LIG1        0.0230
     86 H          -8.4815   -1.3432    1.9392 H       1  LIG1        0.0230
@<TRIPOS>BOND
     1     1     2    1
     2     1     3    1
     3     1     4    1
     4     2     5    1
     5     2     6    1
     6     3     8    1
     7     3     7    1
     8     4    10   ar
     9     4     9   ar
    10     5     8    1
    11     5    11    1
    12     6    12    1
    13     7    14   ar
    14     7    13   ar
    15    11    15    1
    16    12    18    1
    17    12    17    1
    18    12    16    1
    19    13    19   ar
    20    14    20   ar
    21    15    22    2
    22    15    21   am
    23    16    23    1
    24    19    25    1
    25    19    24   ar
    26    20    24   ar
    27    20    26    1
    28    21    28    1
    29    21    27    1
    30    23    29    1
    31    24    30    1
    32    25    31    1
    33    26    32    1
    34    27    33    1
    35    28    34    1
    36    30    31    1
    37    33    35    1
    38    34    36    1
    39    35    37    1
    40    36    38    1
    41     1    39    1
    42     2    40    1
    43     3    41    1
    44     5    42    1
    45     6    43    1
    46     6    44    1
    47     8    45    1
    48     8    46    1
    49    11    47    1
    50    11    48    1
    51    13    49    1
    52    14    50    1
    53    16    51    1
    54    16    52    1
    55    17    53    1
    56    17    54    1
    57    17    55    1
    58    18    56    1
    59    18    57    1
    60    18    58    1
    61    23    59    1
    62    23    60    1
    63    27    61    1
    64    27    62    1
    65    28    63    1
    66    28    64    1
    67    29    65    1
    68    29    66    1
    69    29    67    1
    70    31    68    1
    71    31    69    1
    72    32    70    1
    73    32    71    1
    74    32    72    1
    75    33    73    1
    76    33    74    1
    77    34    75    1
    78    34    76    1
    79    35    77    1
    80    35    78    1
    81    36    79    1
    82    36    80    1
    83    37    81    1
    84    37    82    1
    85    37    83    1
    86    38    84    1
    87    38    85    1
    88    38    86    1
@<TRIPOS>MOLECULE
01012527H
 86 88 0 0 0
SMALL
GASTEIGER

@<TRIPOS>ATOM
      1 C          -0.9606    3.1141    5.4434 C.3     1  LIG1        0.0531
      2 C          -1.1382    2.1230    4.3001 C.3     1  LIG1       -0.0111
      3 C          -2.3089    3.3311    6.1147 C.3     1  LIG1        0.0375
      4 C          -0.0106    2.2977    6.3126 C.2     1  LIG1        0.0509
      5 N          -2.5463    1.5210    4.5184 N.4     1  LIG1        0.2448
      6 C          -1.1179    2.7054    2.8668 C.3     1  LIG1       -0.0039
      7 C          -2.9702    4.6280    5.6600 C.ar    1  LIG1       -0.0313
      8 C          -3.0851    2.0478    5.8396 C.3     1  LIG1       -0.0234
      9 O           1.2062    2.5506    6.1319 O.co2   1  LIG1       -0.5493
     10 O          -0.5576    1.3929    7.0017 O.co2   1  LIG1       -0.5493
     11 C          -2.5270   -0.0062    4.4657 C.3     1  LIG1        0.0465
     12 C           0.2662    3.0350    2.2195 C.3     1  LIG1       -0.0298
     13 C          -2.7623    5.7824    6.4340 C.ar    1  LIG1       -0.0122
     14 C          -3.7611    4.7415    4.4953 C.ar    1  LIG1       -0.0124
     15 C          -3.9371   -0.6160    4.4704 C.2     1  LIG1        0.2608
     16 C           0.0725    3.2989    0.6887 C.3     1  LIG1       -0.0479
     17 C           0.8547    4.3287    2.8193 C.3     1  LIG1       -0.0596
     18 C           1.2845    1.9001    2.4305 C.3     1  LIG1       -0.0596
     19 C          -3.3544    6.9644    6.0393 C.ar    1  LIG1        0.1702
     20 C          -4.3276    5.9625    4.0895 C.ar    1  LIG1        0.1656
     21 N          -4.0701   -1.9972    4.3439 N.am    1  LIG1       -0.2971
     22 O          -4.9163    0.1324    4.5603 O.2     1  LIG1       -0.2697
     23 C          -0.2758    2.0754   -0.1705 C.3     1  LIG1       -0.0554
     24 C          -4.1190    7.0647    4.8972 C.ar    1  LIG1        0.2075
     25 O          -3.2592    8.1419    6.7163 O.3     1  LIG1       -0.4525
     26 O          -5.0343    5.8918    2.9228 O.3     1  LIG1       -0.4913
     27 C          -2.9574   -2.9182    4.0565 C.3     1  LIG1        0.0148
     28 C          -5.4321   -2.5493    4.3847 C.3     1  LIG1        0.0148
     29 C          -0.4284    2.4552   -1.6373 C.3     1  LIG1       -0.0653
     30 O          -4.5962    8.3289    4.7286 O.3     1  LIG1       -0.4489
     31 C          -4.0759    8.9941    5.8962 C.3     1  LIG1        0.2334
     32 C          -5.4511    7.1249    2.3476 C.3     1  LIG1        0.0790
     33 C          -2.7212   -3.9656    5.1497 C.3     1  LIG1       -0.0374
     34 C          -6.2620   -2.2960    3.1199 C.3     1  LIG1       -0.0374
     35 C          -1.6135   -4.9592    4.7818 C.3     1  LIG1       -0.0545
     36 C          -5.7501   -2.9704    1.8468 C.3     1  LIG1       -0.0545
     37 C          -0.2222   -4.3451    4.7931 C.3     1  LIG1       -0.0652
     38 C          -5.7482   -4.4896    1.9232 C.3     1  LIG1       -0.0652
     39 H          -0.4808    4.0534    5.1621 H       1  LIG1        0.0424
     40 H          -0.4494    1.2704    4.3272 H       1  LIG1        0.0858
     41 H          -2.1990    3.4110    7.2052 H       1  LIG1        0.0409
     42 H          -3.2019    1.8331    3.7955 H       1  LIG1        0.2042
     43 H          -1.7506    3.5990    2.8196 H       1  LIG1        0.0325
     44 H          -1.6124    1.9662    2.2256 H       1  LIG1        0.0325
     45 H          -4.1625    2.2054    5.7337 H       1  LIG1        0.0821
     46 H          -2.9179    1.2860    6.6064 H       1  LIG1        0.0821
     47 H          -1.9442   -0.3715    5.3160 H       1  LIG1        0.0913
     48 H          -2.0430   -0.2550    3.5167 H       1  LIG1        0.0913
     49 H          -2.1541    5.7592    7.3356 H       1  LIG1        0.0658
     50 H          -3.9524    3.8811    3.8629 H       1  LIG1        0.0658
     51 H           0.9967    3.7337    0.2835 H       1  LIG1        0.0270
     52 H          -0.7053    4.0625    0.5549 H       1  LIG1        0.0270
     53 H           1.1908    4.1873    3.8489 H       1  LIG1        0.0235
     54 H           0.1228    5.1435    2.8031 H       1  LIG1        0.0235
     55 H           1.7330    4.6630    2.2538 H       1  LIG1        0.0235
     56 H           1.6094    1.8362    3.4733 H       1  LIG1        0.0235
     57 H           2.1843    2.0627    1.8266 H       1  LIG1        0.0235
     58 H           0.8649    0.9264    2.1577 H       1  LIG1        0.0235
     59 H          -1.2080    1.6115    0.1657 H       1  LIG1        0.0263
     60 H           0.5124    1.3186   -0.0949 H       1  LIG1        0.0263
     61 H          -2.0384   -2.3523    3.9039 H       1  LIG1        0.0464
     62 H          -3.1739   -3.4104    3.1042 H       1  LIG1        0.0464
     63 H          -5.9486   -2.0731    5.2284 H       1  LIG1        0.0464
     64 H          -5.4008   -3.6164    4.6150 H       1  LIG1        0.0464
     65 H          -1.2358    3.1818   -1.7722 H       1  LIG1        0.0230
     66 H          -0.6652    1.5683   -2.2344 H       1  LIG1        0.0230
     67 H           0.4968    2.8893   -2.0285 H       1  LIG1        0.0230
     68 H          -3.4779    9.8528    5.5736 H       1  LIG1        0.1166
     69 H          -4.9181    9.3580    6.4955 H       1  LIG1        0.1166
     70 H          -5.8799    6.9030    1.3660 H       1  LIG1        0.0660
     71 H          -4.6042    7.8001    2.1882 H       1  LIG1        0.0660
     72 H          -6.2354    7.5927    2.9499 H       1  LIG1        0.0660
     73 H          -3.6340   -4.5444    5.3190 H       1  LIG1        0.0280
     74 H          -2.4879   -3.4699    6.0987 H       1  LIG1        0.0280
     75 H          -6.3330   -1.2192    2.9293 H       1  LIG1        0.0280
     76 H          -7.2875   -2.6390    3.3112 H       1  LIG1        0.0280
     77 H          -1.8129   -5.3933    3.7958 H       1  LIG1        0.0263
     78 H          -1.6328   -5.7853    5.5002 H       1  LIG1        0.0263
     79 H          -4.7475   -2.6075    1.6008 H       1  LIG1        0.0263
     80 H          -6.3990   -2.6694    1.0161 H       1  LIG1        0.0263
     81 H          -0.1154   -3.5696    4.0285 H       1  LIG1        0.0230
     82 H           0.5290   -5.1151    4.5909 H       1  LIG1        0.0230
     83 H           0.0016   -3.9021    5.7694 H       1  LIG1        0.0230
     84 H          -5.0473   -4.8587    2.6774 H       1  LIG1        0.0230
     85 H          -5.4497   -4.9124    0.9592 H       1  LIG1        0.0230
     86 H          -6.7454   -4.8712    2.1663 H       1  LIG1        0.0230
@<TRIPOS>BOND
     1     1     2    1
     2     1     3    1
     3     1     4    1
     4     2     5    1
     5     2     6    1
     6     3     8    1
     7     3     7    1
     8     4    10   ar
     9     4     9   ar
    10     5     8    1
    11     5    11    1
    12     6    12    1
    13     7    14   ar
    14     7    13   ar
    15    11    15    1
    16    12    18    1
    17    12    17    1
    18    12    16    1
    19    13    19   ar
    20    14    20   ar
    21    15    22    2
    22    15    21   am
    23    16    23    1
    24    19    25    1
    25    19    24   ar
    26    20    24   ar
    27    20    26    1
    28    21    28    1
    29    21    27    1
    30    23    29    1
    31    24    30    1
    32    25    31    1
    33    26    32    1
    34    27    33    1
    35    28    34    1
    36    30    31    1
    37    33    35    1
    38    34    36    1
    39    35    37    1
    40    36    38    1
    41     1    39    1
    42     2    40    1
    43     3    41    1
    44     5    42    1
    45     6    43    1
    46     6    44    1
    47     8    45    1
    48     8    46    1
    49    11    47    1
    50    11    48    1
    51    13    49    1
    52    14    50    1
    53    16    51    1
    54    16    52    1
    55    17    53    1
    56    17    54    1
    57    17    55    1
    58    18    56    1
    59    18    57    1
    60    18    58    1
    61    23    59    1
    62    23    60    1
    63    27    61    1
    64    27    62    1
    65    28    63    1
    66    28    64    1
    67    29    65    1
    68    29    66    1
    69    29    67    1
    70    31    68    1
    71    31    69    1
    72    32    70    1
    73    32    71    1
    74    32    72    1
    75    33    73    1
    76    33    74    1
    77    34    75    1
    78    34    76    1
    79    35    77    1
    80    35    78    1
    81    36    79    1
    82    36    80    1
    83    37    81    1
    84    37    82    1
    85    37    83    1
    86    38    84    1
    87    38    85    1
    88    38    86    1
@<TRIPOS>MOLECULE
01012527H
 86 88 0 0 0
SMALL
GASTEIGER

@<TRIPOS>ATOM
      1 C          -0.8327    2.9871    5.4893 C.3     1  LIG1        0.0531
      2 C          -1.0342    2.0947    4.2732 C.3     1  LIG1       -0.0111
      3 C          -2.2040    3.3669    6.0293 C.3     1  LIG1        0.0375
      4 C          -0.0723    2.0155    6.3838 C.2     1  LIG1        0.0509
      5 N          -2.4777    1.5485    4.4290 N.4     1  LIG1        0.2448
      6 C          -0.9649    2.7524    2.8762 C.3     1  LIG1       -0.0039
      7 C          -2.6346    4.7376    5.5194 C.ar    1  LIG1       -0.0313
      8 C          -3.0916    2.1752    5.6759 C.3     1  LIG1       -0.0234
      9 O           1.1684    1.9885    6.1818 O.co2   1  LIG1       -0.5493
     10 O          -0.7886    1.2713    7.1064 O.co2   1  LIG1       -0.5493
     11 C          -2.4798    0.0171    4.4865 C.3     1  LIG1        0.0465
     12 C           0.4240    3.1952    2.3061 C.3     1  LIG1       -0.0298
     13 C          -3.4127    4.9433    4.3763 C.ar    1  LIG1       -0.0122
     14 C          -2.1734    5.8762    6.2316 C.ar    1  LIG1       -0.0124
     15 C          -3.8888   -0.5939    4.4982 C.2     1  LIG1        0.2608
     16 C           1.4772    2.0657    2.4752 C.3     1  LIG1       -0.0479
     17 C           0.2045    3.4961    0.8038 C.3     1  LIG1       -0.0596
     18 C           0.9084    4.4948    2.9726 C.3     1  LIG1       -0.0596
     19 C          -3.6573    6.2447    3.9737 C.ar    1  LIG1        0.1702
     20 C          -2.4623    7.1896    5.8274 C.ar    1  LIG1        0.1656
     21 N          -4.0008   -1.9839    4.4658 N.am    1  LIG1       -0.2971
     22 O          -4.8781    0.1458    4.5268 O.2     1  LIG1       -0.2697
     23 C           2.8532    2.3387    1.8554 C.3     1  LIG1       -0.0554
     24 C          -3.1994    7.3437    4.6715 C.ar    1  LIG1        0.2075
     25 O          -4.3508    6.5820    2.8506 O.3     1  LIG1       -0.4525
     26 O          -1.9506    8.1569    6.6416 O.3     1  LIG1       -0.4913
     27 C          -2.9046   -2.8811    4.0660 C.3     1  LIG1        0.0148
     28 C          -5.3370   -2.5736    4.6138 C.3     1  LIG1        0.0148
     29 C           3.8298    1.2129    2.1665 C.3     1  LIG1       -0.0653
     30 O          -3.5645    8.5044    4.0589 O.3     1  LIG1       -0.4489
     31 C          -4.2450    8.0175    2.8888 C.3     1  LIG1        0.2334
     32 C          -2.2957    9.5046    6.3504 C.3     1  LIG1        0.0790
     33 C          -2.0402   -3.3587    5.2317 C.3     1  LIG1       -0.0374
     34 C          -5.9142   -2.4935    6.0328 C.3     1  LIG1       -0.0374
     35 C          -0.8210   -4.1624    4.7719 C.3     1  LIG1       -0.0545
     36 C          -5.1452   -3.3436    7.0430 C.3     1  LIG1       -0.0545
     37 C          -1.1856   -5.5227    4.1971 C.3     1  LIG1       -0.0652
     38 C          -5.8812   -3.4496    8.3702 C.3     1  LIG1       -0.0652
     39 H          -0.1984    3.8562    5.3144 H       1  LIG1        0.0424
     40 H          -0.3850    1.2119    4.2501 H       1  LIG1        0.0858
     41 H          -2.1936    3.4439    7.1251 H       1  LIG1        0.0409
     42 H          -3.0725    1.8204    3.6407 H       1  LIG1        0.2042
     43 H          -1.6482    3.6061    2.8293 H       1  LIG1        0.0325
     44 H          -1.3771    2.0184    2.1664 H       1  LIG1        0.0325
     45 H          -4.1259    2.4472    5.4434 H       1  LIG1        0.0821
     46 H          -3.1046    1.4210    6.4690 H       1  LIG1        0.0821
     47 H          -1.9290   -0.2859    5.3788 H       1  LIG1        0.0913
     48 H          -1.9601   -0.2990    3.5794 H       1  LIG1        0.0913
     49 H          -3.8077    4.1331    3.7773 H       1  LIG1        0.0658
     50 H          -1.5644    5.7380    7.1267 H       1  LIG1        0.0658
     51 H           1.0788    1.1359    2.0481 H       1  LIG1        0.0270
     52 H           1.6304    1.8751    3.5429 H       1  LIG1        0.0270
     53 H          -0.6076    4.2193    0.6624 H       1  LIG1        0.0235
     54 H          -0.0604    2.5860    0.2533 H       1  LIG1        0.0235
     55 H           1.0977    3.9205    0.3345 H       1  LIG1        0.0235
     56 H           0.0907    5.2146    3.0836 H       1  LIG1        0.0235
     57 H           1.6864    4.9846    2.3772 H       1  LIG1        0.0235
     58 H           1.3415    4.3074    3.9587 H       1  LIG1        0.0235
     59 H           3.2702    3.2747    2.2413 H       1  LIG1        0.0263
     60 H           2.7712    2.4366    0.7681 H       1  LIG1        0.0263
     61 H          -2.2795   -2.3605    3.3345 H       1  LIG1        0.0464
     62 H          -3.3349   -3.7344    3.5306 H       1  LIG1        0.0464
     63 H          -5.3200   -3.6187    4.2841 H       1  LIG1        0.0464
     64 H          -6.0098   -2.0404    3.9311 H       1  LIG1        0.0464
     65 H           3.9703    1.1023    3.2470 H       1  LIG1        0.0230
     66 H           4.8064    1.4234    1.7184 H       1  LIG1        0.0230
     67 H           3.4703    0.2590    1.7667 H       1  LIG1        0.0230
     68 H          -5.2523    8.4454    2.8636 H       1  LIG1        0.1166
     69 H          -3.6985    8.3530    2.0004 H       1  LIG1        0.1166
     70 H          -1.8753   10.1322    7.1420 H       1  LIG1        0.0660
     71 H          -3.3804    9.6513    6.3595 H       1  LIG1        0.0660
     72 H          -1.8509    9.8281    5.4045 H       1  LIG1        0.0660
     73 H          -2.6358   -3.9714    5.9152 H       1  LIG1        0.0280
     74 H          -1.6893   -2.4977    5.8115 H       1  LIG1        0.0280
     75 H          -6.9541   -2.8420    5.9912 H       1  LIG1        0.0280
     76 H          -5.9436   -1.4547    6.3802 H       1  LIG1        0.0280
     77 H          -0.1593   -4.3153    5.6323 H       1  LIG1        0.0263
     78 H          -0.2505   -3.5904    4.0308 H       1  LIG1        0.0263
     79 H          -4.1617   -2.8996    7.2260 H       1  LIG1        0.0263
     80 H          -4.9887   -4.3525    6.6449 H       1  LIG1        0.0263
     81 H          -1.7591   -6.1116    4.9197 H       1  LIG1        0.0230
     82 H          -0.2782   -6.0823    3.9501 H       1  LIG1        0.0230
     83 H          -1.7770   -5.4287    3.2820 H       1  LIG1        0.0230
     84 H          -6.0361   -2.4610    8.8140 H       1  LIG1        0.0230
     85 H          -5.3008   -4.0529    9.0763 H       1  LIG1        0.0230
     86 H          -6.8571   -3.9272    8.2404 H       1  LIG1        0.0230
@<TRIPOS>BOND
     1     1     2    1
     2     1     3    1
     3     1     4    1
     4     2     5    1
     5     2     6    1
     6     3     8    1
     7     3     7    1
     8     4    10   ar
     9     4     9   ar
    10     5     8    1
    11     5    11    1
    12     6    12    1
    13     7    14   ar
    14     7    13   ar
    15    11    15    1
    16    12    18    1
    17    12    17    1
    18    12    16    1
    19    13    19   ar
    20    14    20   ar
    21    15    22    2
    22    15    21   am
    23    16    23    1
    24    19    25    1
    25    19    24   ar
    26    20    24   ar
    27    20    26    1
    28    21    28    1
    29    21    27    1
    30    23    29    1
    31    24    30    1
    32    25    31    1
    33    26    32    1
    34    27    33    1
    35    28    34    1
    36    30    31    1
    37    33    35    1
    38    34    36    1
    39    35    37    1
    40    36    38    1
    41     1    39    1
    42     2    40    1
    43     3    41    1
    44     5    42    1
    45     6    43    1
    46     6    44    1
    47     8    45    1
    48     8    46    1
    49    11    47    1
    50    11    48    1
    51    13    49    1
    52    14    50    1
    53    16    51    1
    54    16    52    1
    55    17    53    1
    56    17    54    1
    57    17    55    1
    58    18    56    1
    59    18    57    1
    60    18    58    1
    61    23    59    1
    62    23    60    1
    63    27    61    1
    64    27    62    1
    65    28    63    1
    66    28    64    1
    67    29    65    1
    68    29    66    1
    69    29    67    1
    70    31    68    1
    71    31    69    1
    72    32    70    1
    73    32    71    1
    74    32    72    1
    75    33    73    1
    76    33    74    1
    77    34    75    1
    78    34    76    1
    79    35    77    1
    80    35    78    1
    81    36    79    1
    82    36    80    1
    83    37    81    1
    84    37    82    1
    85    37    83    1
    86    38    84    1
    87    38    85    1
    88    38    86    1
@<TRIPOS>MOLECULE
01012527H
 86 88 0 0 0
SMALL
GASTEIGER

@<TRIPOS>ATOM
      1 C          -0.8458    3.0048    5.4747 C.3     1  LIG1        0.0531
      2 C          -1.0500    2.1169    4.2552 C.3     1  LIG1       -0.0111
      3 C          -2.2164    3.3752    6.0254 C.3     1  LIG1        0.0375
      4 C          -0.0737    2.0295    6.3551 C.2     1  LIG1        0.0509
      5 N          -2.4926    1.5674    4.4173 N.4     1  LIG1        0.2448
      6 C          -0.9886    2.7869    2.8638 C.3     1  LIG1       -0.0039
      7 C          -2.6547    4.7460    5.5217 C.ar    1  LIG1       -0.0313
      8 C          -3.0990    2.1802    5.6732 C.3     1  LIG1       -0.0234
      9 O           1.1631    1.9953    6.1266 O.co2   1  LIG1       -0.5493
     10 O          -0.7798    1.2888    7.0898 O.co2   1  LIG1       -0.5493
     11 C          -2.4888    0.0353    4.4601 C.3     1  LIG1        0.0465
     12 C           0.4060    3.1330    2.2379 C.3     1  LIG1       -0.0298
     13 C          -3.4425    4.9520    4.3845 C.ar    1  LIG1       -0.0122
     14 C          -2.1887    5.8842    6.2305 C.ar    1  LIG1       -0.0124
     15 C          -3.8956   -0.5818    4.4787 C.2     1  LIG1        0.2608
     16 C           0.1364    3.4309    0.7246 C.3     1  LIG1       -0.0479
     17 C           1.0242    4.3671    2.9143 C.3     1  LIG1       -0.0596
     18 C           1.3825    1.9512    2.3708 C.3     1  LIG1       -0.0596
     19 C          -3.6901    6.2534    3.9850 C.ar    1  LIG1        0.1702
     20 C          -2.4792    7.1978    5.8284 C.ar    1  LIG1        0.1656
     21 N          -4.0000   -1.9729    4.4532 N.am    1  LIG1       -0.2971
     22 O          -4.8872    0.1544    4.5066 O.2     1  LIG1       -0.2697
     23 C           1.3404    3.8485   -0.1286 C.3     1  LIG1       -0.0554
     24 C          -3.2264    7.3520    4.6781 C.ar    1  LIG1        0.2075
     25 O          -4.3921    6.5904    2.8669 O.3     1  LIG1       -0.4525
     26 O          -1.9590    8.1643    6.6376 O.3     1  LIG1       -0.4913
     27 C          -2.8995   -2.8666    4.0586 C.3     1  LIG1        0.0148
     28 C          -5.3333   -2.5680    4.6043 C.3     1  LIG1        0.0148
     29 C           0.9513    3.9861   -1.5949 C.3     1  LIG1       -0.0653
     30 O          -3.5948    8.5135    4.0684 O.3     1  LIG1       -0.4489
     31 C          -4.2841    8.0255    2.9038 C.3     1  LIG1        0.2334
     32 C          -2.2989    9.5128    6.3450 C.3     1  LIG1        0.0790
     33 C          -2.0464   -3.3481    5.2306 C.3     1  LIG1       -0.0374
     34 C          -5.9131   -2.4803    6.0218 C.3     1  LIG1       -0.0374
     35 C          -0.8214   -4.1482    4.7796 C.3     1  LIG1       -0.0545
     36 C          -5.1458   -3.3248    7.0387 C.3     1  LIG1       -0.0545
     37 C          -1.1784   -5.5063    4.1934 C.3     1  LIG1       -0.0652
     38 C          -5.8840   -3.4240    8.3646 C.3     1  LIG1       -0.0652
     39 H          -0.2194    3.8802    5.2986 H       1  LIG1        0.0424
     40 H          -0.4024    1.2337    4.2247 H       1  LIG1        0.0858
     41 H          -2.1990    3.4491    7.1217 H       1  LIG1        0.0409
     42 H          -3.0942    1.8444    3.6359 H       1  LIG1        0.2042
     43 H          -1.6051    3.6910    2.8557 H       1  LIG1        0.0325
     44 H          -1.4819    2.0950    2.1646 H       1  LIG1        0.0325
     45 H          -4.1370    2.4471    5.4526 H       1  LIG1        0.0821
     46 H          -3.0992    1.4205    6.4608 H       1  LIG1        0.0821
     47 H          -1.9275   -0.2742    5.3436 H       1  LIG1        0.0913
     48 H          -1.9779   -0.2708    3.5438 H       1  LIG1        0.0913
     49 H          -3.8400    4.1413    3.7877 H       1  LIG1        0.0658
     50 H          -1.5720    5.7456    7.1204 H       1  LIG1        0.0658
     51 H          -0.6251    4.2194    0.6496 H       1  LIG1        0.0270
     52 H          -0.3075    2.5354    0.2677 H       1  LIG1        0.0270
     53 H           1.3223    4.1565    3.9441 H       1  LIG1        0.0235
     54 H           0.3233    5.2091    2.9221 H       1  LIG1        0.0235
     55 H           1.9361    4.6960    2.4062 H       1  LIG1        0.0235
     56 H           1.6019    1.7235    3.4180 H       1  LIG1        0.0235
     57 H           2.3474    2.1660    1.9011 H       1  LIG1        0.0235
     58 H           0.9745    1.0474    1.9061 H       1  LIG1        0.0235
     59 H           2.1456    3.1117   -0.0558 H       1  LIG1        0.0263
     60 H           1.7373    4.8090    0.2146 H       1  LIG1        0.0263
     61 H          -2.2672   -2.3424    3.3358 H       1  LIG1        0.0464
     62 H          -3.3247   -3.7172    3.5149 H       1  LIG1        0.0464
     63 H          -5.3105   -3.6152    4.2824 H       1  LIG1        0.0464
     64 H          -6.0081   -2.0430    3.9170 H       1  LIG1        0.0464
     65 H           0.5941    3.0320   -1.9961 H       1  LIG1        0.0230
     66 H           1.8161    4.2997   -2.1882 H       1  LIG1        0.0230
     67 H           0.1605    4.7317   -1.7242 H       1  LIG1        0.0230
     68 H          -5.2918    8.4553    2.8851 H       1  LIG1        0.1166
     69 H          -3.7435    8.3609    2.0105 H       1  LIG1        0.1166
     70 H          -1.8680   10.1408    7.1313 H       1  LIG1        0.0660
     71 H          -3.3829    9.6656    6.3635 H       1  LIG1        0.0660
     72 H          -1.8606    9.8313    5.3941 H       1  LIG1        0.0660
     73 H          -2.6474   -3.9652    5.9049 H       1  LIG1        0.0280
     74 H          -1.7027   -2.4895    5.8173 H       1  LIG1        0.0280
     75 H          -6.9524   -2.8295    5.9806 H       1  LIG1        0.0280
     76 H          -5.9437   -1.4395    6.3639 H       1  LIG1        0.0280
     77 H          -0.1688   -4.3060    5.6463 H       1  LIG1        0.0263
     78 H          -0.2433   -3.5724    4.0474 H       1  LIG1        0.0263
     79 H          -4.1624   -2.8793    7.2209 H       1  LIG1        0.0263
     80 H          -4.9882   -4.3359    6.6460 H       1  LIG1        0.0263
     81 H          -1.7595   -6.0998    4.9066 H       1  LIG1        0.0230
     82 H          -0.2675   -6.0639    3.9533 H       1  LIG1        0.0230
     83 H          -1.7602   -5.4077    3.2724 H       1  LIG1        0.0230
     84 H          -6.0400   -2.4335    8.8027 H       1  LIG1        0.0230
     85 H          -5.3054   -4.0239    9.0746 H       1  LIG1        0.0230
     86 H          -6.8600   -3.9025    8.2350 H       1  LIG1        0.0230
@<TRIPOS>BOND
     1     1     2    1
     2     1     3    1
     3     1     4    1
     4     2     5    1
     5     2     6    1
     6     3     8    1
     7     3     7    1
     8     4    10   ar
     9     4     9   ar
    10     5     8    1
    11     5    11    1
    12     6    12    1
    13     7    14   ar
    14     7    13   ar
    15    11    15    1
    16    12    18    1
    17    12    17    1
    18    12    16    1
    19    13    19   ar
    20    14    20   ar
    21    15    22    2
    22    15    21   am
    23    16    23    1
    24    19    25    1
    25    19    24   ar
    26    20    24   ar
    27    20    26    1
    28    21    28    1
    29    21    27    1
    30    23    29    1
    31    24    30    1
    32    25    31    1
    33    26    32    1
    34    27    33    1
    35    28    34    1
    36    30    31    1
    37    33    35    1
    38    34    36    1
    39    35    37    1
    40    36    38    1
    41     1    39    1
    42     2    40    1
    43     3    41    1
    44     5    42    1
    45     6    43    1
    46     6    44    1
    47     8    45    1
    48     8    46    1
    49    11    47    1
    50    11    48    1
    51    13    49    1
    52    14    50    1
    53    16    51    1
    54    16    52    1
    55    17    53    1
    56    17    54    1
    57    17    55    1
    58    18    56    1
    59    18    57    1
    60    18    58    1
    61    23    59    1
    62    23    60    1
    63    27    61    1
    64    27    62    1
    65    28    63    1
    66    28    64    1
    67    29    65    1
    68    29    66    1
    69    29    67    1
    70    31    68    1
    71    31    69    1
    72    32    70    1
    73    32    71    1
    74    32    72    1
    75    33    73    1
    76    33    74    1
    77    34    75    1
    78    34    76    1
    79    35    77    1
    80    35    78    1
    81    36    79    1
    82    36    80    1
    83    37    81    1
    84    37    82    1
    85    37    83    1
    86    38    84    1
    87    38    85    1
    88    38    86    1
@<TRIPOS>MOLECULE
01012527H
 86 88 0 0 0
SMALL
GASTEIGER

@<TRIPOS>ATOM
      1 C          -0.9107    3.1043    5.4560 C.3     1  LIG1        0.0531
      2 C          -1.1207    2.0945    4.3348 C.3     1  LIG1       -0.0111
      3 C          -2.2414    3.3507    6.1502 C.3     1  LIG1        0.0375
      4 C           0.0489    2.2950    6.3217 C.2     1  LIG1        0.0509
      5 N          -2.5360    1.5138    4.5902 N.4     1  LIG1        0.2448
      6 C          -1.1149    2.6538    2.8912 C.3     1  LIG1       -0.0039
      7 C          -2.9085    4.6412    5.6831 C.ar    1  LIG1       -0.0313
      8 C          -3.0349    2.0714    5.9175 C.3     1  LIG1       -0.0234
      9 O          -0.4926    1.4046    7.0336 O.co2   1  LIG1       -0.5493
     10 O           1.2632    2.5383    6.1169 O.co2   1  LIG1       -0.5493
     11 C          -2.5455   -0.0193    4.5600 C.3     1  LIG1        0.0465
     12 C           0.2599    2.9968    2.2299 C.3     1  LIG1       -0.0298
     13 C          -2.7114    5.8028    6.4484 C.ar    1  LIG1       -0.0122
     14 C          -3.7032    4.7390    4.5191 C.ar    1  LIG1       -0.0124
     15 C          -3.9583   -0.6146    4.7011 C.2     1  LIG1        0.2608
     16 C           0.0501    3.2594    0.7007 C.3     1  LIG1       -0.0479
     17 C           0.8457    4.2975    2.8181 C.3     1  LIG1       -0.0596
     18 C           1.2892    1.8708    2.4328 C.3     1  LIG1       -0.0596
     19 C          -3.3197    6.9760    6.0464 C.ar    1  LIG1        0.1702
     20 C          -4.2849    5.9506    4.1052 C.ar    1  LIG1        0.1656
     21 N          -4.1672   -1.9543    4.3898 N.am    1  LIG1       -0.2971
     22 O          -4.8905    0.1143    5.0574 O.2     1  LIG1       -0.2697
     23 C          -0.2996    2.0354   -0.1573 C.3     1  LIG1       -0.0554
     24 C          -4.0880    7.0589    4.9057 C.ar    1  LIG1        0.2075
     25 O          -3.2394    8.1581    6.7173 O.3     1  LIG1       -0.4525
     26 O          -4.9939    5.8628    2.9417 O.3     1  LIG1       -0.4913
     27 C          -3.1286   -2.8963    3.9493 C.3     1  LIG1        0.0148
     28 C          -5.5216   -2.4932    4.5846 C.3     1  LIG1        0.0148
     29 C          -0.4524    2.4161   -1.6231 C.3     1  LIG1       -0.0653
     30 O          -4.5831    8.3163    4.7316 O.3     1  LIG1       -0.4489
     31 C          -4.0738    8.9925    5.8962 C.3     1  LIG1        0.2334
     32 C          -5.4262    7.0866    2.3585 C.3     1  LIG1        0.0790
     33 C          -2.8005   -3.9596    5.0021 C.3     1  LIG1       -0.0374
     34 C          -6.5458   -1.9509    3.5832 C.3     1  LIG1       -0.0374
     35 C          -1.7061   -4.9075    4.5080 C.3     1  LIG1       -0.0545
     36 C          -7.9181   -2.6170    3.7100 C.3     1  LIG1       -0.0545
     37 C          -1.5270   -6.0930    5.4437 C.3     1  LIG1       -0.0652
     38 C          -8.5464   -2.4700    5.0889 C.3     1  LIG1       -0.0652
     39 H          -0.4293    4.0353    5.1516 H       1  LIG1        0.0424
     40 H          -0.4429    1.2328    4.3634 H       1  LIG1        0.0858
     41 H          -2.1067    3.4516    7.2360 H       1  LIG1        0.0409
     42 H          -3.1976    1.8318    3.8770 H       1  LIG1        0.2042
     43 H          -1.7607    3.5371    2.8326 H       1  LIG1        0.0325
     44 H          -1.6017    1.8962    2.2651 H       1  LIG1        0.0325
     45 H          -4.1114    2.2489    5.8343 H       1  LIG1        0.0821
     46 H          -2.8581    1.3206    6.6927 H       1  LIG1        0.0821
     47 H          -1.9014   -0.3814    5.3652 H       1  LIG1        0.0913
     48 H          -2.1390   -0.2797    3.5801 H       1  LIG1        0.0913
     49 H          -2.1031    5.7932    7.3492 H       1  LIG1        0.0658
     50 H          -3.8888    3.8730    3.8935 H       1  LIG1        0.0658
     51 H           0.9682    3.6994    0.2868 H       1  LIG1        0.0270
     52 H          -0.7326    4.0192    0.5741 H       1  LIG1        0.0270
     53 H           1.2150    4.1580    3.8369 H       1  LIG1        0.0235
     54 H           0.1015    5.1018    2.8254 H       1  LIG1        0.0235
     55 H           1.7031    4.6479    2.2304 H       1  LIG1        0.0235
     56 H           1.6195    1.8077    3.4737 H       1  LIG1        0.0235
     57 H           2.1841    2.0428    1.8245 H       1  LIG1        0.0235
     58 H           0.8767    0.8943    2.1608 H       1  LIG1        0.0235
     59 H          -1.2313    1.5738    0.1809 H       1  LIG1        0.0263
     60 H           0.4883    1.2791   -0.0821 H       1  LIG1        0.0263
     61 H          -2.2134   -2.3621    3.6891 H       1  LIG1        0.0464
     62 H          -3.4932   -3.3689    3.0299 H       1  LIG1        0.0464
     63 H          -5.8209   -2.2474    5.6113 H       1  LIG1        0.0464
     64 H          -5.4939   -3.5848    4.5047 H       1  LIG1        0.0464
     65 H          -1.2598    3.1431   -1.7586 H       1  LIG1        0.0230
     66 H          -0.6884    1.5296   -2.2215 H       1  LIG1        0.0230
     67 H           0.4731    2.8513   -2.0150 H       1  LIG1        0.0230
     68 H          -3.4923    9.8628    5.5712 H       1  LIG1        0.1166
     69 H          -4.9217    9.3426    6.4970 H       1  LIG1        0.1166
     70 H          -5.8535    6.8529    1.3781 H       1  LIG1        0.0660
     71 H          -4.5877    7.7714    2.1932 H       1  LIG1        0.0660
     72 H          -6.2159    7.5492    2.9582 H       1  LIG1        0.0660
     73 H          -3.6954   -4.5434    5.2438 H       1  LIG1        0.0280
     74 H          -2.4819   -3.4764    5.9338 H       1  LIG1        0.0280
     75 H          -6.1723   -2.1021    2.5641 H       1  LIG1        0.0280
     76 H          -6.6700   -0.8680    3.7053 H       1  LIG1        0.0280
     77 H          -0.7583   -4.3640    4.4230 H       1  LIG1        0.0263
     78 H          -1.9558   -5.2823    3.5079 H       1  LIG1        0.0263
     79 H          -7.8373   -3.6810    3.4616 H       1  LIG1        0.0263
     80 H          -8.5913   -2.1680    2.9685 H       1  LIG1        0.0263
     81 H          -1.2819   -5.7622    6.4580 H       1  LIG1        0.0230
     82 H          -0.7185   -6.7382    5.0885 H       1  LIG1        0.0230
     83 H          -2.4422   -6.6940    5.4903 H       1  LIG1        0.0230
     84 H          -7.9943   -3.0416    5.8410 H       1  LIG1        0.0230
     85 H          -9.5731   -2.8499    5.0774 H       1  LIG1        0.0230
     86 H          -8.5745   -1.4218    5.4015 H       1  LIG1        0.0230
@<TRIPOS>BOND
     1     1     2    1
     2     1     3    1
     3     1     4    1
     4     2     5    1
     5     2     6    1
     6     3     8    1
     7     3     7    1
     8     4    10   ar
     9     4     9   ar
    10     5     8    1
    11     5    11    1
    12     6    12    1
    13     7    14   ar
    14     7    13   ar
    15    11    15    1
    16    12    18    1
    17    12    17    1
    18    12    16    1
    19    13    19   ar
    20    14    20   ar
    21    15    22    2
    22    15    21   am
    23    16    23    1
    24    19    25    1
    25    19    24   ar
    26    20    24   ar
    27    20    26    1
    28    21    28    1
    29    21    27    1
    30    23    29    1
    31    24    30    1
    32    25    31    1
    33    26    32    1
    34    27    33    1
    35    28    34    1
    36    30    31    1
    37    33    35    1
    38    34    36    1
    39    35    37    1
    40    36    38    1
    41     1    39    1
    42     2    40    1
    43     3    41    1
    44     5    42    1
    45     6    43    1
    46     6    44    1
    47     8    45    1
    48     8    46    1
    49    11    47    1
    50    11    48    1
    51    13    49    1
    52    14    50    1
    53    16    51    1
    54    16    52    1
    55    17    53    1
    56    17    54    1
    57    17    55    1
    58    18    56    1
    59    18    57    1
    60    18    58    1
    61    23    59    1
    62    23    60    1
    63    27    61    1
    64    27    62    1
    65    28    63    1
    66    28    64    1
    67    29    65    1
    68    29    66    1
    69    29    67    1
    70    31    68    1
    71    31    69    1
    72    32    70    1
    73    32    71    1
    74    32    72    1
    75    33    73    1
    76    33    74    1
    77    34    75    1
    78    34    76    1
    79    35    77    1
    80    35    78    1
    81    36    79    1
    82    36    80    1
    83    37    81    1
    84    37    82    1
    85    37    83    1
    86    38    84    1
    87    38    85    1
    88    38    86    1
@<TRIPOS>MOLECULE
01012527H
 86 88 0 0 0
SMALL
GASTEIGER

@<TRIPOS>ATOM
      1 C          -0.9613    3.0834    5.4092 C.3     1  LIG1        0.0531
      2 C          -1.1371    2.1004    4.2589 C.3     1  LIG1       -0.0111
      3 C          -2.3107    3.3010    6.0783 C.3     1  LIG1        0.0375
      4 C          -0.0194    2.2601    6.2811 C.2     1  LIG1        0.0509
      5 N          -2.5524    1.5123    4.4593 N.4     1  LIG1        0.2448
      6 C          -1.1010    2.6936    2.8313 C.3     1  LIG1       -0.0039
      7 C          -2.9674    4.6037    5.6350 C.ar    1  LIG1       -0.0313
      8 C          -3.0918    2.0253    5.7857 C.3     1  LIG1       -0.0234
      9 O          -0.5715    1.3400    6.9458 O.co2   1  LIG1       -0.5493
     10 O           1.1976    2.5274    6.1287 O.co2   1  LIG1       -0.5493
     11 C          -2.5630   -0.0133    4.3841 C.3     1  LIG1        0.0465
     12 C           0.2880    3.0338    2.2011 C.3     1  LIG1       -0.0298
     13 C          -2.7627    5.7487    6.4236 C.ar    1  LIG1       -0.0122
     14 C          -3.7556    4.7294    4.4699 C.ar    1  LIG1       -0.0124
     15 C          -3.9925   -0.5786    4.3751 C.2     1  LIG1        0.2608
     16 C           0.1096    3.2894    0.6672 C.3     1  LIG1       -0.0479
     17 C           0.8559    4.3361    2.8029 C.3     1  LIG1       -0.0596
     18 C           1.3149    1.9107    2.4294 C.3     1  LIG1       -0.0596
     19 C          -3.3589    6.9346    6.0421 C.ar    1  LIG1        0.1702
     20 C          -4.3249    5.9542    4.0777 C.ar    1  LIG1        0.1656
     21 N          -4.1668   -1.9562    4.3751 N.am    1  LIG1       -0.2971
     22 O          -4.9463    0.2059    4.3613 O.2     1  LIG1       -0.2697
     23 C          -0.2165    2.0583   -0.1904 C.3     1  LIG1       -0.0554
     24 C          -4.1217    7.0454    4.9005 C.ar    1  LIG1        0.2075
     25 O          -3.2702    8.1028    6.7351 O.3     1  LIG1       -0.4525
     26 O          -5.0301    5.8955    2.9101 O.3     1  LIG1       -0.4913
     27 C          -3.0844   -2.9421    4.2366 C.3     1  LIG1        0.0148
     28 C          -5.5320   -2.4675    4.5527 C.3     1  LIG1        0.0148
     29 C          -0.3690    2.4317   -1.6584 C.3     1  LIG1       -0.0653
     30 O          -4.6054    8.3101    4.7483 O.3     1  LIG1       -0.4489
     31 C          -4.0937    8.9604    5.9272 C.3     1  LIG1        0.2334
     32 C          -5.4351    7.1351    2.3416 C.3     1  LIG1        0.0790
     33 C          -3.2445   -3.8135    2.9878 C.3     1  LIG1       -0.0374
     34 C          -6.3827   -2.3638    3.2835 C.3     1  LIG1       -0.0374
     35 C          -2.0519   -4.7466    2.7845 C.3     1  LIG1       -0.0545
     36 C          -7.7708   -2.9648    3.5020 C.3     1  LIG1       -0.0545
     37 C          -2.2791   -5.6817    1.6059 C.3     1  LIG1       -0.0652
     38 C          -8.6470   -2.8030    2.2703 C.3     1  LIG1       -0.0652
     39 H          -0.4780    4.0234    5.1371 H       1  LIG1        0.0424
     40 H          -0.4572    1.2408    4.2862 H       1  LIG1        0.0858
     41 H          -2.2045    3.3688    7.1701 H       1  LIG1        0.0409
     42 H          -3.2008    1.8438    3.7377 H       1  LIG1        0.2042
     43 H          -1.7375    3.5850    2.7831 H       1  LIG1        0.0325
     44 H          -1.5865    1.9573    2.1801 H       1  LIG1        0.0325
     45 H          -4.1687    2.1874    5.6812 H       1  LIG1        0.0821
     46 H          -2.9289    1.2536    6.5441 H       1  LIG1        0.0821
     47 H          -1.9986   -0.3946    5.2394 H       1  LIG1        0.0913
     48 H          -2.0783   -0.2759    3.4390 H       1  LIG1        0.0913
     49 H          -2.1571    5.7162    7.3257 H       1  LIG1        0.0658
     50 H          -3.9447    3.8771    3.8265 H       1  LIG1        0.0658
     51 H           1.0337    3.7322    0.2703 H       1  LIG1        0.0270
     52 H          -0.6746    4.0446    0.5217 H       1  LIG1        0.0270
     53 H           1.1861    4.2010    3.8355 H       1  LIG1        0.0235
     54 H           0.1139    5.1418    2.7797 H       1  LIG1        0.0235
     55 H           1.7339    4.6804    2.2436 H       1  LIG1        0.0235
     56 H           1.6240    1.8516    3.4776 H       1  LIG1        0.0235
     57 H           2.2226    2.0827    1.8396 H       1  LIG1        0.0235
     58 H           0.9107    0.9318    2.1514 H       1  LIG1        0.0235
     59 H          -1.1426    1.5811    0.1424 H       1  LIG1        0.0263
     60 H           0.5828    1.3144   -0.1085 H       1  LIG1        0.0263
     61 H          -3.0890   -3.5626    5.1404 H       1  LIG1        0.0464
     62 H          -2.1151   -2.4397    4.2003 H       1  LIG1        0.0464
     63 H          -6.0070   -1.8886    5.3550 H       1  LIG1        0.0464
     64 H          -5.4782   -3.5050    4.9026 H       1  LIG1        0.0464
     65 H          -1.1861    3.1461   -1.7989 H       1  LIG1        0.0230
     66 H          -0.5908    1.5400   -2.2535 H       1  LIG1        0.0230
     67 H           0.5517    2.8781   -2.0477 H       1  LIG1        0.0230
     68 H          -3.5033    9.8306    5.6201 H       1  LIG1        0.1166
     69 H          -4.9406    9.3067    6.5312 H       1  LIG1        0.1166
     70 H          -5.8558    6.9238    1.3537 H       1  LIG1        0.0660
     71 H          -4.5835    7.8081    2.1960 H       1  LIG1        0.0660
     72 H          -6.2232    7.6020    2.9403 H       1  LIG1        0.0660
     73 H          -3.3636   -3.1739    2.1046 H       1  LIG1        0.0280
     74 H          -4.1572   -4.4149    3.0707 H       1  LIG1        0.0280
     75 H          -5.8887   -2.8768    2.4510 H       1  LIG1        0.0280
     76 H          -6.4830   -1.3149    2.9821 H       1  LIG1        0.0280
     77 H          -1.8837   -5.3433    3.6886 H       1  LIG1        0.0263
     78 H          -1.1451   -4.1569    2.6089 H       1  LIG1        0.0263
     79 H          -8.2586   -2.4793    4.3553 H       1  LIG1        0.0263
     80 H          -7.6794   -4.0304    3.7426 H       1  LIG1        0.0263
     81 H          -3.1502   -6.3226    1.7780 H       1  LIG1        0.0230
     82 H          -1.4081   -6.3272    1.4588 H       1  LIG1        0.0230
     83 H          -2.4462   -5.1182    0.6825 H       1  LIG1        0.0230
     84 H          -8.7947   -1.7447    2.0320 H       1  LIG1        0.0230
     85 H          -9.6299   -3.2521    2.4427 H       1  LIG1        0.0230
     86 H          -8.1966   -3.2916    1.4005 H       1  LIG1        0.0230
@<TRIPOS>BOND
     1     1     2    1
     2     1     3    1
     3     1     4    1
     4     2     5    1
     5     2     6    1
     6     3     8    1
     7     3     7    1
     8     4    10   ar
     9     4     9   ar
    10     5     8    1
    11     5    11    1
    12     6    12    1
    13     7    14   ar
    14     7    13   ar
    15    11    15    1
    16    12    18    1
    17    12    17    1
    18    12    16    1
    19    13    19   ar
    20    14    20   ar
    21    15    22    2
    22    15    21   am
    23    16    23    1
    24    19    25    1
    25    19    24   ar
    26    20    24   ar
    27    20    26    1
    28    21    28    1
    29    21    27    1
    30    23    29    1
    31    24    30    1
    32    25    31    1
    33    26    32    1
    34    27    33    1
    35    28    34    1
    36    30    31    1
    37    33    35    1
    38    34    36    1
    39    35    37    1
    40    36    38    1
    41     1    39    1
    42     2    40    1
    43     3    41    1
    44     5    42    1
    45     6    43    1
    46     6    44    1
    47     8    45    1
    48     8    46    1
    49    11    47    1
    50    11    48    1
    51    13    49    1
    52    14    50    1
    53    16    51    1
    54    16    52    1
    55    17    53    1
    56    17    54    1
    57    17    55    1
    58    18    56    1
    59    18    57    1
    60    18    58    1
    61    23    59    1
    62    23    60    1
    63    27    61    1
    64    27    62    1
    65    28    63    1
    66    28    64    1
    67    29    65    1
    68    29    66    1
    69    29    67    1
    70    31    68    1
    71    31    69    1
    72    32    70    1
    73    32    71    1
    74    32    72    1
    75    33    73    1
    76    33    74    1
    77    34    75    1
    78    34    76    1
    79    35    77    1
    80    35    78    1
    81    36    79    1
    82    36    80    1
    83    37    81    1
    84    37    82    1
    85    37    83    1
    86    38    84    1
    87    38    85    1
    88    38    86    1
@<TRIPOS>MOLECULE
01012527H
 86 88 0 0 0
SMALL
GASTEIGER

@<TRIPOS>ATOM
      1 C          -0.9393    3.0919    5.4131 C.3     1  LIG1        0.0531
      2 C          -1.1174    2.1047    4.2667 C.3     1  LIG1       -0.0111
      3 C          -2.2903    3.3270    6.0714 C.3     1  LIG1        0.0375
      4 C          -0.0117    2.2599    6.2935 C.2     1  LIG1        0.0509
      5 N          -2.5322    1.5161    4.4743 N.4     1  LIG1        0.2448
      6 C          -1.0886    2.6879    2.8348 C.3     1  LIG1       -0.0039
      7 C          -2.9410    4.6298    5.6185 C.ar    1  LIG1       -0.0313
      8 C          -3.0795    2.0538    5.7886 C.3     1  LIG1       -0.0234
      9 O          -0.5798    1.3662    6.9782 O.co2   1  LIG1       -0.5493
     10 O           1.2115    2.4939    6.1243 O.co2   1  LIG1       -0.5493
     11 C          -2.5368   -0.0120    4.4273 C.3     1  LIG1        0.0465
     12 C           0.2931    3.0466    2.1996 C.3     1  LIG1       -0.0298
     13 C          -2.7434    5.7762    6.4074 C.ar    1  LIG1       -0.0122
     14 C          -3.7297    4.7512    4.4531 C.ar    1  LIG1       -0.0124
     15 C          -3.9608   -0.5865    4.4377 C.2     1  LIG1        0.2608
     16 C           0.1076    3.2842    0.6634 C.3     1  LIG1       -0.0479
     17 C           0.8371    4.3653    2.7879 C.3     1  LIG1       -0.0596
     18 C           1.3410    1.9454    2.4364 C.3     1  LIG1       -0.0596
     19 C          -3.3574    6.9554    6.0331 C.ar    1  LIG1        0.1702
     20 C          -4.3119    5.9712    4.0653 C.ar    1  LIG1        0.1656
     21 N          -4.1299   -1.9653    4.3967 N.am    1  LIG1       -0.2971
     22 O          -4.9225    0.1892    4.4737 O.2     1  LIG1       -0.2697
     23 C          -0.2048    2.0404   -0.1814 C.3     1  LIG1       -0.0554
     24 C          -4.1249    7.0605    4.8943 C.ar    1  LIG1        0.2075
     25 O          -3.2899    8.1199    6.7349 O.3     1  LIG1       -0.4525
     26 O          -5.0196    5.9111    2.8988 O.3     1  LIG1       -0.4913
     27 C          -3.0462   -2.9445    4.2132 C.3     1  LIG1        0.0148
     28 C          -5.4878   -2.4859    4.6034 C.3     1  LIG1        0.0148
     29 C          -0.3631    2.3967   -1.6530 C.3     1  LIG1       -0.0653
     30 O          -4.6352    8.3161    4.7542 O.3     1  LIG1       -0.4489
     31 C          -4.1589    8.9567    5.9530 C.3     1  LIG1        0.2334
     32 C          -5.3937    7.1533    2.3138 C.3     1  LIG1        0.0790
     33 C          -3.2593   -3.8301    2.9810 C.3     1  LIG1       -0.0374
     34 C          -6.3761   -2.3392    3.3636 C.3     1  LIG1       -0.0374
     35 C          -2.0735   -4.7599    2.7291 C.3     1  LIG1       -0.0545
     36 C          -7.7419   -3.0105    3.5182 C.3     1  LIG1       -0.0545
     37 C          -2.3605   -5.7196    1.5835 C.3     1  LIG1       -0.0652
     38 C          -8.5860   -2.4194    4.6369 C.3     1  LIG1       -0.0652
     39 H          -0.4428    4.0250    5.1424 H       1  LIG1        0.0424
     40 H          -0.4357    1.2462    4.2945 H       1  LIG1        0.0858
     41 H          -2.1881    3.4033    7.1631 H       1  LIG1        0.0409
     42 H          -3.1792    1.8323    3.7451 H       1  LIG1        0.2042
     43 H          -1.7402    3.5674    2.7784 H       1  LIG1        0.0325
     44 H          -1.5615    1.9372    2.1907 H       1  LIG1        0.0325
     45 H          -4.1535    2.2260    5.6699 H       1  LIG1        0.0821
     46 H          -2.9330    1.2915    6.5595 H       1  LIG1        0.0821
     47 H          -1.9648   -0.3782    5.2847 H       1  LIG1        0.0913
     48 H          -2.0555   -0.2848    3.4833 H       1  LIG1        0.0913
     49 H          -2.1371    5.7477    7.3091 H       1  LIG1        0.0658
     50 H          -3.9120    3.8975    3.8093 H       1  LIG1        0.0658
     51 H           1.0247    3.7349    0.2596 H       1  LIG1        0.0270
     52 H          -0.6870    4.0274    0.5121 H       1  LIG1        0.0270
     53 H           1.1836    4.2431    3.8169 H       1  LIG1        0.0235
     54 H           0.0757    5.1530    2.7703 H       1  LIG1        0.0235
     55 H           1.6994    4.7281    2.2162 H       1  LIG1        0.0235
     56 H           1.6497    1.8990    3.4852 H       1  LIG1        0.0235
     57 H           2.2461    2.1317    1.8467 H       1  LIG1        0.0235
     58 H           0.9569    0.9570    2.1643 H       1  LIG1        0.0235
     59 H          -1.1251    1.5559    0.1568 H       1  LIG1        0.0263
     60 H           0.6032    1.3065   -0.0926 H       1  LIG1        0.0263
     61 H          -3.0031   -3.5571    5.1212 H       1  LIG1        0.0464
     62 H          -2.0838   -2.4349    4.1264 H       1  LIG1        0.0464
     63 H          -5.9268   -1.9333    5.4424 H       1  LIG1        0.0464
     64 H          -5.4229   -3.5346    4.9152 H       1  LIG1        0.0464
     65 H          -1.1870    3.1021   -1.7995 H       1  LIG1        0.0230
     66 H          -0.5780    1.4968   -2.2381 H       1  LIG1        0.0230
     67 H           0.5527    2.8473   -2.0487 H       1  LIG1        0.0230
     68 H          -3.6176    9.8674    5.6741 H       1  LIG1        0.1166
     69 H          -5.0234    9.2371    6.5671 H       1  LIG1        0.1166
     70 H          -5.7972    6.9416    1.3186 H       1  LIG1        0.0660
     71 H          -4.5293    7.8130    2.1818 H       1  LIG1        0.0660
     72 H          -6.1869    7.6360    2.8926 H       1  LIG1        0.0660
     73 H          -3.4228   -3.1998    2.0980 H       1  LIG1        0.0280
     74 H          -4.1646   -4.4348    3.1111 H       1  LIG1        0.0280
     75 H          -5.8742   -2.7766    2.4932 H       1  LIG1        0.0280
     76 H          -6.5217   -1.2793    3.1249 H       1  LIG1        0.0280
     77 H          -1.8498   -5.3378    3.6329 H       1  LIG1        0.0263
     78 H          -1.1827   -4.1678    2.4903 H       1  LIG1        0.0263
     79 H          -7.6109   -4.0852    3.6893 H       1  LIG1        0.0263
     80 H          -8.2889   -2.9040    2.5738 H       1  LIG1        0.0263
     81 H          -3.2128   -6.3655    1.8198 H       1  LIG1        0.0230
     82 H          -1.4930   -6.3598    1.3962 H       1  LIG1        0.0230
     83 H          -2.5889   -5.1759    0.6611 H       1  LIG1        0.0230
     84 H          -8.1498   -2.6264    5.6188 H       1  LIG1        0.0230
     85 H          -9.5889   -2.8577    4.6225 H       1  LIG1        0.0230
     86 H          -8.6873   -1.3355    4.5240 H       1  LIG1        0.0230
@<TRIPOS>BOND
     1     1     2    1
     2     1     3    1
     3     1     4    1
     4     2     5    1
     5     2     6    1
     6     3     8    1
     7     3     7    1
     8     4    10   ar
     9     4     9   ar
    10     5     8    1
    11     5    11    1
    12     6    12    1
    13     7    14   ar
    14     7    13   ar
    15    11    15    1
    16    12    18    1
    17    12    17    1
    18    12    16    1
    19    13    19   ar
    20    14    20   ar
    21    15    22    2
    22    15    21   am
    23    16    23    1
    24    19    25    1
    25    19    24   ar
    26    20    24   ar
    27    20    26    1
    28    21    28    1
    29    21    27    1
    30    23    29    1
    31    24    30    1
    32    25    31    1
    33    26    32    1
    34    27    33    1
    35    28    34    1
    36    30    31    1
    37    33    35    1
    38    34    36    1
    39    35    37    1
    40    36    38    1
    41     1    39    1
    42     2    40    1
    43     3    41    1
    44     5    42    1
    45     6    43    1
    46     6    44    1
    47     8    45    1
    48     8    46    1
    49    11    47    1
    50    11    48    1
    51    13    49    1
    52    14    50    1
    53    16    51    1
    54    16    52    1
    55    17    53    1
    56    17    54    1
    57    17    55    1
    58    18    56    1
    59    18    57    1
    60    18    58    1
    61    23    59    1
    62    23    60    1
    63    27    61    1
    64    27    62    1
    65    28    63    1
    66    28    64    1
    67    29    65    1
    68    29    66    1
    69    29    67    1
    70    31    68    1
    71    31    69    1
    72    32    70    1
    73    32    71    1
    74    32    72    1
    75    33    73    1
    76    33    74    1
    77    34    75    1
    78    34    76    1
    79    35    77    1
    80    35    78    1
    81    36    79    1
    82    36    80    1
    83    37    81    1
    84    37    82    1
    85    37    83    1
    86    38    84    1
    87    38    85    1
    88    38    86    1
