@<TRIPOS>MOLECULE
*****
 43 45 0 0 0
SMALL
GASTEIGER

@<TRIPOS>ATOM
      1 BR          1.7058    3.2816    1.3685 Br      1  LIG1       -0.0503
      2 BR         10.9773   -1.7256    7.8957 Br      1  LIG1       -0.0472
      3 S           6.9431    3.4360   -3.0996 S.O2    1  LIG1        0.1079
      4 O           6.7525   -1.0175    0.3220 O.3     1  LIG1       -0.4724
      5 O           7.7664    4.1018   -4.0740 O.2     1  LIG1       -0.1383
      6 O           6.1276    2.2888   -3.4051 O.2     1  LIG1       -0.1383
      7 O           7.7144   -1.6340    2.9280 O.3     1  LIG1       -0.4590
      8 N           5.8924    4.5890   -2.5032 N.3     1  LIG1       -0.1906
      9 N           7.8411    3.2176   -1.7117 N.pl3   1  LIG1       -0.1891
     10 N           9.2453    1.4297   -1.8121 N.ar    1  LIG1       -0.2186
     11 N           8.7382   -0.6993   -0.8802 N.ar    1  LIG1       -0.2008
     12 N           9.3004   -2.7367    4.2529 N.ar    1  LIG1       -0.2022
     13 N           8.4586   -0.5749    4.8227 N.ar    1  LIG1       -0.2022
     14 C           7.1297    1.1042   -0.6513 C.ar    1  LIG1        0.0848
     15 C           8.0581    1.8610   -1.3555 C.ar    1  LIG1        0.1532
     16 C           5.8385    1.6240   -0.1614 C.ar    1  LIG1       -0.0094
     17 C           7.5676   -0.1964   -0.4325 C.ar    1  LIG1        0.2276
     18 C           4.6283    0.9926   -0.5036 C.ar    1  LIG1       -0.0527
     19 C           5.7715    2.7678    0.6539 C.ar    1  LIG1       -0.0527
     20 C           7.2863   -2.3019    0.6557 C.3     1  LIG1        0.1252
     21 C           3.3997    1.4797   -0.0470 C.ar    1  LIG1       -0.0472
     22 C           4.5442    3.2645    1.1057 C.ar    1  LIG1       -0.0472
     23 C           9.5173    0.1475   -1.5594 C.ar    1  LIG1        0.1219
     24 C           8.3188   -2.2446    1.7847 C.3     1  LIG1        0.1267
     25 C           3.3641    2.6154    0.7551 C.ar    1  LIG1        0.0179
     26 C           8.5537   -1.6433    4.0166 C.ar    1  LIG1        0.3180
     27 C          10.0069   -2.7307    5.4037 C.ar    1  LIG1        0.0483
     28 C           9.1953   -0.6197    5.9534 C.ar    1  LIG1        0.0483
     29 C           9.9904   -1.6874    6.3000 C.ar    1  LIG1        0.0543
     30 H           5.2157    4.1312   -1.8902 H       1  LIG1        0.1456
     31 H           5.4192    5.0421   -3.2849 H       1  LIG1        0.1456
     32 H           8.7438    3.6636   -1.8742 H       1  LIG1        0.1763
     33 H           4.6343    0.1057   -1.1364 H       1  LIG1        0.0624
     34 H           6.6827    3.2857    0.9497 H       1  LIG1        0.0624
     35 H           7.6769   -2.8177   -0.2299 H       1  LIG1        0.0731
     36 H           6.4297   -2.8911    1.0040 H       1  LIG1        0.0731
     37 H           2.4843    0.9620   -0.3217 H       1  LIG1        0.0629
     38 H           4.5247    4.1507    1.7349 H       1  LIG1        0.0629
     39 H          10.4579   -0.2412   -1.9352 H       1  LIG1        0.1049
     40 H           8.6285   -3.2742    1.9999 H       1  LIG1        0.0732
     41 H           9.1954   -1.6573    1.4900 H       1  LIG1        0.0732
     42 H          10.5944   -3.6263    5.5835 H       1  LIG1        0.0843
     43 H           9.1101    0.2572    6.5887 H       1  LIG1        0.0843
@<TRIPOS>BOND
     1     1    25    1
     2     2    29    1
     3     3     9    1
     4     3     8    1
     5     3     6    2
     6     3     5    2
     7     4    17    1
     8     4    20    1
     9     7    24    1
    10     7    26    1
    11     9    15    1
    12    10    15   ar
    13    10    23   ar
    14    11    17   ar
    15    11    23   ar
    16    12    26   ar
    17    12    27   ar
    18    13    26   ar
    19    13    28   ar
    20    14    15   ar
    21    14    17   ar
    22    16    18   ar
    23    16    19   ar
    24    16    14    1
    25    18    21   ar
    26    19    22   ar
    27    20    24    1
    28    21    25   ar
    29    22    25   ar
    30    27    29   ar
    31    28    29   ar
    32     8    30    1
    33     8    31    1
    34     9    32    1
    35    18    33    1
    36    19    34    1
    37    20    35    1
    38    20    36    1
    39    21    37    1
    40    22    38    1
    41    23    39    1
    42    24    40    1
    43    24    41    1
    44    27    42    1
    45    28    43    1
@<TRIPOS>MOLECULE
*****
 43 45 0 0 0
SMALL
GASTEIGER

@<TRIPOS>ATOM
      1 BR          1.8410    3.3800    1.6486 Br      1  LIG1       -0.0503
      2 BR         14.5692    0.4956   -0.6101 Br      1  LIG1       -0.0472
      3 S           6.7759    3.5090   -3.1288 S.O2    1  LIG1        0.1079
      4 O           6.8070   -1.0070    0.3732 O.3     1  LIG1       -0.4724
      5 O           7.5797    4.1628   -4.1270 O.2     1  LIG1       -0.1383
      6 O           5.8563    2.4400   -3.4239 O.2     1  LIG1       -0.1383
      7 O           9.3805   -1.3701    1.6404 O.3     1  LIG1       -0.4590
      8 N           5.8558    4.7018   -2.4088 N.3     1  LIG1       -0.1906
      9 N           7.7422    3.1591   -1.8179 N.pl3   1  LIG1       -0.1891
     10 N           8.9636    1.2795   -2.2256 N.ar    1  LIG1       -0.2186
     11 N           8.4282   -0.8498   -1.3109 N.ar    1  LIG1       -0.2008
     12 N          11.3910   -1.8899    0.5263 N.ar    1  LIG1       -0.2022
     13 N          10.9165    0.3087    1.3271 N.ar    1  LIG1       -0.2022
     14 C           7.0370    1.0494   -0.7563 C.ar    1  LIG1        0.0848
     15 C           7.9042    1.7726   -1.5644 C.ar    1  LIG1        0.1532
     16 C           5.8174    1.6012   -0.1374 C.ar    1  LIG1       -0.0094
     17 C           7.4332   -0.2739   -0.6123 C.ar    1  LIG1        0.2276
     18 C           4.5672    1.0050   -0.3966 C.ar    1  LIG1       -0.0527
     19 C           5.8406    2.7403    0.6833 C.ar    1  LIG1       -0.0527
     20 C           7.3131   -2.3009    0.7153 C.3     1  LIG1        0.1252
     21 C           3.3856    1.5261    0.1370 C.ar    1  LIG1       -0.0472
     22 C           4.6588    3.2702    1.2154 C.ar    1  LIG1       -0.0472
     23 C           9.1479   -0.0347   -2.0874 C.ar    1  LIG1        0.1219
     24 C           8.8255   -2.4744    0.9256 C.3     1  LIG1        0.1267
     25 C           3.4376    2.6604    0.9387 C.ar    1  LIG1        0.0179
     26 C          10.6081   -0.9848    1.1443 C.ar    1  LIG1        0.3180
     27 C          12.5516   -1.4245    0.0181 C.ar    1  LIG1        0.0483
     28 C          12.0957    0.7156    0.8078 C.ar    1  LIG1        0.0483
     29 C          12.9555   -0.1153    0.1274 C.ar    1  LIG1        0.0543
     30 H           5.1887    4.2606   -1.7735 H       1  LIG1        0.1456
     31 H           5.3677    5.2265   -3.1344 H       1  LIG1        0.1456
     32 H           8.6560    3.5658   -2.0153 H       1  LIG1        0.1763
     33 H           4.5040    0.1249   -1.0361 H       1  LIG1        0.0624
     34 H           6.7844    3.2321    0.9136 H       1  LIG1        0.0624
     35 H           6.9435   -3.0338   -0.0115 H       1  LIG1        0.0731
     36 H           6.8256   -2.5438    1.6677 H       1  LIG1        0.0731
     37 H           2.4388    1.0404   -0.0847 H       1  LIG1        0.0629
     38 H           4.7045    4.1563    1.8434 H       1  LIG1        0.0629
     39 H           9.9679   -0.4803   -2.6395 H       1  LIG1        0.1049
     40 H           8.9999   -3.3823    1.5161 H       1  LIG1        0.0732
     41 H           9.2893   -2.6552   -0.0505 H       1  LIG1        0.0732
     42 H          13.1533   -2.1657   -0.5000 H       1  LIG1        0.0843
     43 H          12.3241    1.7661    0.9614 H       1  LIG1        0.0843
@<TRIPOS>BOND
     1     1    25    1
     2     2    29    1
     3     3     9    1
     4     3     8    1
     5     3     6    2
     6     3     5    2
     7     4    17    1
     8     4    20    1
     9     7    24    1
    10     7    26    1
    11     9    15    1
    12    10    15   ar
    13    10    23   ar
    14    11    17   ar
    15    11    23   ar
    16    12    26   ar
    17    12    27   ar
    18    13    26   ar
    19    13    28   ar
    20    14    15   ar
    21    14    17   ar
    22    16    18   ar
    23    16    19   ar
    24    16    14    1
    25    18    21   ar
    26    19    22   ar
    27    20    24    1
    28    21    25   ar
    29    22    25   ar
    30    27    29   ar
    31    28    29   ar
    32     8    30    1
    33     8    31    1
    34     9    32    1
    35    18    33    1
    36    19    34    1
    37    20    35    1
    38    20    36    1
    39    21    37    1
    40    22    38    1
    41    23    39    1
    42    24    40    1
    43    24    41    1
    44    27    42    1
    45    28    43    1
@<TRIPOS>MOLECULE
*****
 43 45 0 0 0
SMALL
GASTEIGER

@<TRIPOS>ATOM
      1 BR          1.4306    2.9459    1.5388 Br      1  LIG1       -0.0503
      2 BR         14.9822   -2.8269    3.7678 Br      1  LIG1       -0.0472
      3 S           8.6253    4.1842   -0.4480 S.O2    1  LIG1        0.1079
      4 O           6.7471   -1.0900    0.2826 O.3     1  LIG1       -0.4724
      5 O           8.2180    5.5645   -0.4741 O.2     1  LIG1       -0.1383
      6 O           8.8796    3.4717    0.7770 O.2     1  LIG1       -0.1383
      7 O           9.3194   -3.1575    1.9493 O.3     1  LIG1       -0.4590
      8 N          10.0252    4.0929   -1.3447 N.3     1  LIG1       -0.1906
      9 N           7.6014    3.3145   -1.4482 N.pl3   1  LIG1       -0.1891
     10 N           8.8345    1.4978   -2.0923 N.ar    1  LIG1       -0.2186
     11 N           8.4205   -0.6967   -1.3004 N.ar    1  LIG1       -0.2008
     12 N          11.2810   -1.8681    2.1991 N.ar    1  LIG1       -0.2022
     13 N          11.1303   -4.1174    2.9777 N.ar    1  LIG1       -0.2022
     14 C           6.9286    1.0938   -0.6275 C.ar    1  LIG1        0.0848
     15 C           7.7637    1.9090   -1.3849 C.ar    1  LIG1        0.1532
     16 C           5.6411    1.5238   -0.0390 C.ar    1  LIG1       -0.0094
     17 C           7.3839   -0.2185   -0.5820 C.ar    1  LIG1        0.2276
     18 C           4.4533    0.8536   -0.3999 C.ar    1  LIG1       -0.0527
     19 C           5.5212    2.6105    0.8408 C.ar    1  LIG1       -0.0527
     20 C           7.4945   -2.2626    0.6354 C.3     1  LIG1        0.1252
     21 C           3.2038    1.2634    0.0761 C.ar    1  LIG1       -0.0472
     22 C           4.2714    3.0373    1.3072 C.ar    1  LIG1       -0.0472
     23 C           9.0896    0.1901   -2.0352 C.ar    1  LIG1        0.1219
     24 C           8.8129   -1.9602    1.3596 C.3     1  LIG1        0.1267
     25 C           3.1184    2.3637    0.9200 C.ar    1  LIG1        0.0179
     26 C          10.6174   -3.0221    2.3976 C.ar    1  LIG1        0.3180
     27 C          12.5650   -1.8377    2.6154 C.ar    1  LIG1        0.0483
     28 C          12.4165   -4.0290    3.3806 C.ar    1  LIG1        0.0483
     29 C          13.1903   -2.9029    3.2169 C.ar    1  LIG1        0.0543
     30 H          10.3540    3.1275   -1.3551 H       1  LIG1        0.1456
     31 H          10.7223    4.7176   -0.9385 H       1  LIG1        0.1456
     32 H           7.6799    3.6820   -2.3924 H       1  LIG1        0.1763
     33 H           4.4902   -0.0034   -1.0726 H       1  LIG1        0.0624
     34 H           6.3989    3.1511    1.1843 H       1  LIG1        0.0624
     35 H           7.6515   -2.9034   -0.2410 H       1  LIG1        0.0731
     36 H           6.8525   -2.8456    1.3069 H       1  LIG1        0.0731
     37 H           2.3109    0.7221   -0.2258 H       1  LIG1        0.0629
     38 H           4.2150    3.8990    1.9694 H       1  LIG1        0.0629
     39 H           9.9242   -0.1806   -2.6202 H       1  LIG1        0.1049
     40 H           9.5318   -1.5671    0.6352 H       1  LIG1        0.0732
     41 H           8.6470   -1.2007    2.1335 H       1  LIG1        0.0732
     42 H          13.0813   -0.9002    2.4350 H       1  LIG1        0.0843
     43 H          12.8105   -4.9269    3.8482 H       1  LIG1        0.0843
@<TRIPOS>BOND
     1     1    25    1
     2     2    29    1
     3     3     9    1
     4     3     8    1
     5     3     6    2
     6     3     5    2
     7     4    17    1
     8     4    20    1
     9     7    24    1
    10     7    26    1
    11     9    15    1
    12    10    15   ar
    13    10    23   ar
    14    11    17   ar
    15    11    23   ar
    16    12    26   ar
    17    12    27   ar
    18    13    26   ar
    19    13    28   ar
    20    14    15   ar
    21    14    17   ar
    22    16    18   ar
    23    16    19   ar
    24    16    14    1
    25    18    21   ar
    26    19    22   ar
    27    20    24    1
    28    21    25   ar
    29    22    25   ar
    30    27    29   ar
    31    28    29   ar
    32     8    30    1
    33     8    31    1
    34     9    32    1
    35    18    33    1
    36    19    34    1
    37    20    35    1
    38    20    36    1
    39    21    37    1
    40    22    38    1
    41    23    39    1
    42    24    40    1
    43    24    41    1
    44    27    42    1
    45    28    43    1
@<TRIPOS>MOLECULE
*****
 43 45 0 0 0
SMALL
GASTEIGER

@<TRIPOS>ATOM
      1 BR          1.4119    2.9599    1.4223 Br      1  LIG1       -0.0503
      2 BR         14.9293   -2.5297    3.5988 Br      1  LIG1       -0.0472
      3 S           8.6661    4.1730   -0.4154 S.O2    1  LIG1        0.1079
      4 O           6.7355   -1.1233    0.2828 O.3     1  LIG1       -0.4724
      5 O           8.2315    5.5434   -0.4126 O.2     1  LIG1       -0.1383
      6 O           8.9536    3.4482    0.7989 O.2     1  LIG1       -0.1383
      7 O           9.2214   -3.2035    2.0554 O.3     1  LIG1       -0.4590
      8 N          10.0589    4.1223   -1.3282 N.3     1  LIG1       -0.1906
      9 N           7.6543    3.2903   -1.4067 N.pl3   1  LIG1       -0.1891
     10 N           8.9073    1.4707   -2.0106 N.ar    1  LIG1       -0.2186
     11 N           8.4585   -0.7270   -1.2423 N.ar    1  LIG1       -0.2008
     12 N          10.9224   -1.8166    2.8882 N.ar    1  LIG1       -0.2022
     13 N          11.3064   -4.1201    2.3831 N.ar    1  LIG1       -0.2022
     14 C           6.9566    1.0694   -0.6015 C.ar    1  LIG1        0.0848
     15 C           7.8187    1.8833   -1.3322 C.ar    1  LIG1        0.1532
     16 C           5.6564    1.5069   -0.0413 C.ar    1  LIG1       -0.0094
     17 C           7.4029   -0.2471   -0.5529 C.ar    1  LIG1        0.2276
     18 C           4.4787    0.8035   -0.3731 C.ar    1  LIG1       -0.0527
     19 C           5.5130    2.6373    0.7798 C.ar    1  LIG1       -0.0527
     20 C           7.4513   -2.3148    0.6446 C.3     1  LIG1        0.1252
     21 C           3.2197    1.2213    0.0719 C.ar    1  LIG1       -0.0472
     22 C           4.2533    3.0741    1.2113 C.ar    1  LIG1       -0.0472
     23 C           9.1540    0.1618   -1.9509 C.ar    1  LIG1        0.1219
     24 C           8.7935   -2.0460    1.3348 C.3     1  LIG1        0.1267
     25 C           3.1123    2.3654    0.8524 C.ar    1  LIG1        0.0179
     26 C          10.5269   -3.0331    2.4687 C.ar    1  LIG1        0.3180
     27 C          12.2230   -1.6997    3.2266 C.ar    1  LIG1        0.0483
     28 C          12.6003   -3.9425    2.7284 C.ar    1  LIG1        0.0483
     29 C          13.1181   -2.7406    3.1556 C.ar    1  LIG1        0.0543
     30 H          10.4210    3.1666   -1.3340 H       1  LIG1        0.1456
     31 H          10.7399    4.7725   -0.9343 H       1  LIG1        0.1456
     32 H           7.7296    3.6519   -2.3537 H       1  LIG1        0.1763
     33 H           4.5292   -0.0866   -0.9993 H       1  LIG1        0.0624
     34 H           6.3787    3.2080    1.1020 H       1  LIG1        0.0624
     35 H           7.5641   -2.9748   -0.2245 H       1  LIG1        0.0731
     36 H           6.8025   -2.8589    1.3421 H       1  LIG1        0.0731
     37 H           2.3369    0.6518   -0.2061 H       1  LIG1        0.0629
     38 H           4.1804    3.9706    1.8222 H       1  LIG1        0.0629
     39 H          10.0050   -0.2113   -2.5104 H       1  LIG1        0.1049
     40 H           9.5504   -1.8084    0.5778 H       1  LIG1        0.0732
     41 H           8.6870   -1.1861    2.0071 H       1  LIG1        0.0732
     42 H          12.5219   -0.7090    3.5567 H       1  LIG1        0.0843
     43 H          13.2214   -4.8287    2.6374 H       1  LIG1        0.0843
@<TRIPOS>BOND
     1     1    25    1
     2     2    29    1
     3     3     9    1
     4     3     8    1
     5     3     6    2
     6     3     5    2
     7     4    17    1
     8     4    20    1
     9     7    24    1
    10     7    26    1
    11     9    15    1
    12    10    15   ar
    13    10    23   ar
    14    11    17   ar
    15    11    23   ar
    16    12    26   ar
    17    12    27   ar
    18    13    26   ar
    19    13    28   ar
    20    14    15   ar
    21    14    17   ar
    22    16    18   ar
    23    16    19   ar
    24    16    14    1
    25    18    21   ar
    26    19    22   ar
    27    20    24    1
    28    21    25   ar
    29    22    25   ar
    30    27    29   ar
    31    28    29   ar
    32     8    30    1
    33     8    31    1
    34     9    32    1
    35    18    33    1
    36    19    34    1
    37    20    35    1
    38    20    36    1
    39    21    37    1
    40    22    38    1
    41    23    39    1
    42    24    40    1
    43    24    41    1
    44    27    42    1
    45    28    43    1
@<TRIPOS>MOLECULE
*****
 43 45 0 0 0
SMALL
GASTEIGER

@<TRIPOS>ATOM
      1 BR          1.5858    3.0165    1.6669 Br      1  LIG1       -0.0503
      2 BR         14.8583   -2.7598    3.7255 Br      1  LIG1       -0.0472
      3 S           8.4241    4.0510   -0.1348 S.O2    1  LIG1        0.1079
      4 O           6.6936   -1.1878   -0.0529 O.3     1  LIG1       -0.4724
      5 O           8.0233    5.4322   -0.1217 O.2     1  LIG1       -0.1383
      6 O           8.3752    3.2050    1.0292 O.2     1  LIG1       -0.1383
      7 O           9.2230   -3.1274    1.8306 O.3     1  LIG1       -0.4590
      8 N          10.0165    4.0429   -0.6371 N.3     1  LIG1       -0.1906
      9 N           7.7437    3.3065   -1.4606 N.pl3   1  LIG1       -0.1891
     10 N           8.9212    1.4992   -2.1779 N.ar    1  LIG1       -0.2186
     11 N           8.4249   -0.7214   -1.5267 N.ar    1  LIG1       -0.2008
     12 N          11.1788   -1.8286    2.0876 N.ar    1  LIG1       -0.2022
     13 N          11.0141   -4.0599    2.9149 N.ar    1  LIG1       -0.2022
     14 C           6.9502    1.0658   -0.7927 C.ar    1  LIG1        0.0848
     15 C           7.8350    1.8919   -1.4868 C.ar    1  LIG1        0.1532
     16 C           5.6877    1.5465   -0.1652 C.ar    1  LIG1       -0.0094
     17 C           7.3747   -0.2594   -0.8123 C.ar    1  LIG1        0.2276
     18 C           4.8889    2.5183   -0.8067 C.ar    1  LIG1       -0.0527
     19 C           5.2046    1.0465    1.0584 C.ar    1  LIG1       -0.0527
     20 C           7.4643   -2.3235    0.3714 C.3     1  LIG1        0.1252
     21 C           3.6836    2.9718   -0.2579 C.ar    1  LIG1       -0.0472
     22 C           3.9825    1.4721    1.5990 C.ar    1  LIG1       -0.0472
     23 C           9.1415    0.1863   -2.1879 C.ar    1  LIG1        0.1219
     24 C           8.7460   -1.9715    1.1411 C.3     1  LIG1        0.1267
     25 C           3.2301    2.4367    0.9396 C.ar    1  LIG1        0.0179
     26 C          10.5118   -2.9787    2.3001 C.ar    1  LIG1        0.3180
     27 C          12.4566   -1.7916    2.5219 C.ar    1  LIG1        0.0483
     28 C          12.2948   -3.9646    3.3344 C.ar    1  LIG1        0.0483
     29 C          13.0726   -2.8445    3.1554 C.ar    1  LIG1        0.0543
     30 H          10.3940    3.0977   -0.5597 H       1  LIG1        0.1456
     31 H          10.5465    4.6984   -0.0610 H       1  LIG1        0.1456
     32 H           8.1128    3.7340   -2.3063 H       1  LIG1        0.1763
     33 H           5.1912    2.9430   -1.7624 H       1  LIG1        0.0624
     34 H           5.7704    0.3071    1.6206 H       1  LIG1        0.0624
     35 H           7.6759   -2.9828   -0.4798 H       1  LIG1        0.0731
     36 H           6.8100   -2.9049    1.0326 H       1  LIG1        0.0731
     37 H           3.1113    3.7338   -0.7803 H       1  LIG1        0.0629
     38 H           3.6335    1.0421    2.5340 H       1  LIG1        0.0629
     39 H           9.9870   -0.1746   -2.7631 H       1  LIG1        0.1049
     40 H           9.4998   -1.6262    0.4263 H       1  LIG1        0.0732
     41 H           8.5454   -1.1651    1.8573 H       1  LIG1        0.0732
     42 H          12.9786   -0.8591    2.3282 H       1  LIG1        0.0843
     43 H          12.6804   -4.8523    3.8272 H       1  LIG1        0.0843
@<TRIPOS>BOND
     1     1    25    1
     2     2    29    1
     3     3     9    1
     4     3     8    1
     5     3     6    2
     6     3     5    2
     7     4    17    1
     8     4    20    1
     9     7    24    1
    10     7    26    1
    11     9    15    1
    12    10    15   ar
    13    10    23   ar
    14    11    17   ar
    15    11    23   ar
    16    12    26   ar
    17    12    27   ar
    18    13    26   ar
    19    13    28   ar
    20    14    15   ar
    21    14    17   ar
    22    16    18   ar
    23    16    19   ar
    24    16    14    1
    25    18    21   ar
    26    19    22   ar
    27    20    24    1
    28    21    25   ar
    29    22    25   ar
    30    27    29   ar
    31    28    29   ar
    32     8    30    1
    33     8    31    1
    34     9    32    1
    35    18    33    1
    36    19    34    1
    37    20    35    1
    38    20    36    1
    39    21    37    1
    40    22    38    1
    41    23    39    1
    42    24    40    1
    43    24    41    1
    44    27    42    1
    45    28    43    1
@<TRIPOS>MOLECULE
*****
 43 45 0 0 0
SMALL
GASTEIGER

@<TRIPOS>ATOM
      1 BR          1.5347    3.0403    1.4968 Br      1  LIG1       -0.0503
      2 BR          8.4104   -3.1393    7.6294 Br      1  LIG1       -0.0472
      3 S           8.5195    4.1008   -0.0680 S.O2    1  LIG1        0.1079
      4 O           6.7140   -1.1790    0.0400 O.3     1  LIG1       -0.4724
      5 O           8.0323    5.4553   -0.0509 O.2     1  LIG1       -0.1383
      6 O           8.5679    3.2631    1.1036 O.2     1  LIG1       -0.1383
      7 O           8.8798   -3.6414    1.7197 O.3     1  LIG1       -0.4590
      8 N          10.0869    4.1894   -0.6379 N.3     1  LIG1       -0.1906
      9 N           7.8477    3.3013   -1.3654 N.pl3   1  LIG1       -0.1891
     10 N           9.0762    1.4889   -1.9643 N.ar    1  LIG1       -0.2186
     11 N           8.5515   -0.7221   -1.3032 N.ar    1  LIG1       -0.2008
     12 N           8.0467   -2.4470    3.5678 N.ar    1  LIG1       -0.2022
     13 N           9.3223   -4.4491    3.8145 N.ar    1  LIG1       -0.2022
     14 C           7.0320    1.0734   -0.6756 C.ar    1  LIG1        0.0848
     15 C           7.9526    1.8885   -1.3400 C.ar    1  LIG1        0.1532
     16 C           5.7345    1.5621   -0.1134 C.ar    1  LIG1       -0.0094
     17 C           7.4542   -0.2566   -0.6663 C.ar    1  LIG1        0.2276
     18 C           5.0091    2.5983   -0.7434 C.ar    1  LIG1       -0.0527
     19 C           5.1392    1.0029    1.0336 C.ar    1  LIG1       -0.0527
     20 C           7.3080   -2.4630    0.2767 C.3     1  LIG1        0.1252
     21 C           3.7786    3.0583   -0.2563 C.ar    1  LIG1       -0.0472
     22 C           3.8871    1.4278    1.5040 C.ar    1  LIG1       -0.0472
     23 C           9.3043    0.1781   -1.9328 C.ar    1  LIG1        0.1219
     24 C           8.6711   -2.4357    0.9819 C.3     1  LIG1        0.1267
     25 C           3.2153    2.4590    0.8607 C.ar    1  LIG1        0.0179
     26 C           8.7442   -3.4871    3.0796 C.ar    1  LIG1        0.3180
     27 C           7.9705   -2.3661    4.9140 C.ar    1  LIG1        0.0483
     28 C           9.2062   -4.3236    5.1536 C.ar    1  LIG1        0.0483
     29 C           8.5388   -3.2871    5.7632 C.ar    1  LIG1        0.0543
     30 H          10.5314    3.2711   -0.5592 H       1  LIG1        0.1456
     31 H          10.5954    4.8925   -0.0992 H       1  LIG1        0.1456
     32 H           8.2141    3.7045   -2.2235 H       1  LIG1        0.1763
     33 H           5.3851    3.0753   -1.6472 H       1  LIG1        0.0624
     34 H           5.6334    0.2124    1.5928 H       1  LIG1        0.0624
     35 H           7.3617   -3.0277   -0.6618 H       1  LIG1        0.0731
     36 H           6.5936   -3.0080    0.9047 H       1  LIG1        0.0731
     37 H           3.2729    3.8734   -0.7659 H       1  LIG1        0.0629
     38 H           3.4514    0.9426    2.3752 H       1  LIG1        0.0629
     39 H          10.1857   -0.1883   -2.4479 H       1  LIG1        0.1049
     40 H           9.4641   -2.4276    0.2254 H       1  LIG1        0.0732
     41 H           8.8257   -1.5205    1.5676 H       1  LIG1        0.0732
     42 H           7.4219   -1.5077    5.2899 H       1  LIG1        0.0843
     43 H           9.6863   -5.1098    5.7288 H       1  LIG1        0.0843
@<TRIPOS>BOND
     1     1    25    1
     2     2    29    1
     3     3     9    1
     4     3     8    1
     5     3     6    2
     6     3     5    2
     7     4    17    1
     8     4    20    1
     9     7    24    1
    10     7    26    1
    11     9    15    1
    12    10    15   ar
    13    10    23   ar
    14    11    17   ar
    15    11    23   ar
    16    12    26   ar
    17    12    27   ar
    18    13    26   ar
    19    13    28   ar
    20    14    15   ar
    21    14    17   ar
    22    16    18   ar
    23    16    19   ar
    24    16    14    1
    25    18    21   ar
    26    19    22   ar
    27    20    24    1
    28    21    25   ar
    29    22    25   ar
    30    27    29   ar
    31    28    29   ar
    32     8    30    1
    33     8    31    1
    34     9    32    1
    35    18    33    1
    36    19    34    1
    37    20    35    1
    38    20    36    1
    39    21    37    1
    40    22    38    1
    41    23    39    1
    42    24    40    1
    43    24    41    1
    44    27    42    1
    45    28    43    1
@<TRIPOS>MOLECULE
*****
 43 45 0 0 0
SMALL
GASTEIGER

@<TRIPOS>ATOM
      1 BR          1.5234    3.5550    1.2210 Br      1  LIG1       -0.0503
      2 BR          1.1643   -0.4064   -7.2956 Br      1  LIG1       -0.0472
      3 S           8.9088    4.0407   -0.0868 S.O2    1  LIG1        0.1079
      4 O           6.4349   -1.1179    0.2171 O.3     1  LIG1       -0.4724
      5 O          10.1649    3.4062    0.1991 O.2     1  LIG1       -0.1383
      6 O           8.8126    5.4538   -0.3710 O.2     1  LIG1       -0.1383
      7 O           3.4176   -1.3390   -1.8835 O.3     1  LIG1       -0.4590
      8 N           7.9264    3.7862    1.2261 N.3     1  LIG1       -0.1906
      9 N           8.0865    3.2416   -1.3028 N.pl3   1  LIG1       -0.1891
     10 N           9.0714    1.2591   -1.7640 N.ar    1  LIG1       -0.2186
     11 N           8.2704   -0.8376   -1.0197 N.ar    1  LIG1       -0.2008
     12 N           1.7002   -0.6210   -3.2039 N.ar    1  LIG1       -0.2022
     13 N           3.7547   -1.3246   -4.2031 N.ar    1  LIG1       -0.2022
     14 C           6.9790    1.1577   -0.4933 C.ar    1  LIG1        0.0848
     15 C           8.0114    1.8254   -1.1613 C.ar    1  LIG1        0.1532
     16 C           5.7513    1.8292    0.0183 C.ar    1  LIG1       -0.0094
     17 C           7.2011   -0.2226   -0.4692 C.ar    1  LIG1        0.2276
     18 C           5.1471    2.8878   -0.6936 C.ar    1  LIG1       -0.0527
     19 C           5.0880    1.4042    1.1836 C.ar    1  LIG1       -0.0527
     20 C           5.1328   -1.4287   -0.2757 C.3     1  LIG1        0.1252
     21 C           3.9217    3.4417   -0.3073 C.ar    1  LIG1       -0.0472
     22 C           3.8263    1.9030    1.5372 C.ar    1  LIG1       -0.0472
     23 C           9.1571   -0.0628   -1.6418 C.ar    1  LIG1        0.1219
     24 C           4.8442   -1.3655   -1.7739 C.3     1  LIG1        0.1267
     25 C           3.2450    2.9145    0.7830 C.ar    1  LIG1        0.0179
     26 C           2.9658   -1.0652   -3.1479 C.ar    1  LIG1        0.3180
     27 C           1.1967   -0.4225   -4.4394 C.ar    1  LIG1        0.0483
     28 C           3.1950   -1.1167   -5.4144 C.ar    1  LIG1        0.0483
     29 C           1.9070   -0.6640   -5.5917 C.ar    1  LIG1        0.0543
     30 H           7.2560    4.5518    1.3019 H       1  LIG1        0.1456
     31 H           8.5032    3.7037    2.0630 H       1  LIG1        0.1456
     32 H           8.6164    3.4191   -2.1569 H       1  LIG1        0.1763
     33 H           5.6105    3.2951   -1.5900 H       1  LIG1        0.0624
     34 H           5.5145    0.6198    1.8076 H       1  LIG1        0.0624
     35 H           4.3937   -0.8396    0.2731 H       1  LIG1        0.0731
     36 H           4.9279   -2.4558    0.0545 H       1  LIG1        0.0731
     37 H           3.4967    4.2570   -0.8873 H       1  LIG1        0.0629
     38 H           3.3003    1.4738    2.3865 H       1  LIG1        0.0629
     39 H          10.0219   -0.5495   -2.0795 H       1  LIG1        0.1049
     40 H           5.2810   -0.4740   -2.2352 H       1  LIG1        0.0732
     41 H           5.2487   -2.2604   -2.2625 H       1  LIG1        0.0732
     42 H           0.1726   -0.0608   -4.4628 H       1  LIG1        0.0843
     43 H           3.8390   -1.3430   -6.2587 H       1  LIG1        0.0843
@<TRIPOS>BOND
     1     1    25    1
     2     2    29    1
     3     3     9    1
     4     3     8    1
     5     3     6    2
     6     3     5    2
     7     4    17    1
     8     4    20    1
     9     7    24    1
    10     7    26    1
    11     9    15    1
    12    10    15   ar
    13    10    23   ar
    14    11    17   ar
    15    11    23   ar
    16    12    26   ar
    17    12    27   ar
    18    13    26   ar
    19    13    28   ar
    20    14    15   ar
    21    14    17   ar
    22    16    18   ar
    23    16    19   ar
    24    16    14    1
    25    18    21   ar
    26    19    22   ar
    27    20    24    1
    28    21    25   ar
    29    22    25   ar
    30    27    29   ar
    31    28    29   ar
    32     8    30    1
    33     8    31    1
    34     9    32    1
    35    18    33    1
    36    19    34    1
    37    20    35    1
    38    20    36    1
    39    21    37    1
    40    22    38    1
    41    23    39    1
    42    24    40    1
    43    24    41    1
    44    27    42    1
    45    28    43    1
@<TRIPOS>MOLECULE
*****
 43 45 0 0 0
SMALL
GASTEIGER

@<TRIPOS>ATOM
      1 BR          1.8528    3.9054    1.7388 Br      1  LIG1       -0.0503
      2 BR          1.3735   -0.1319   -7.4016 Br      1  LIG1       -0.0472
      3 S           8.5905    3.9761    0.0030 S.O2    1  LIG1        0.1079
      4 O           6.2293   -1.1451    0.2531 O.3     1  LIG1       -0.4724
      5 O           8.6029    5.3737   -0.3360 O.2     1  LIG1       -0.1383
      6 O           8.0501    3.4782    1.2411 O.2     1  LIG1       -0.1383
      7 O           3.3670   -1.6928   -2.0281 O.3     1  LIG1       -0.4590
      8 N          10.1834    3.4827   -0.0129 N.3     1  LIG1       -0.1906
      9 N           8.0143    3.1207   -1.3054 N.pl3   1  LIG1       -0.1891
     10 N           8.9554    1.1089   -1.7573 N.ar    1  LIG1       -0.2186
     11 N           8.0809   -0.9611   -1.0073 N.ar    1  LIG1       -0.2008
     12 N           1.6719   -0.9389   -3.3594 N.ar    1  LIG1       -0.2022
     13 N           3.8249   -1.3685   -4.3042 N.ar    1  LIG1       -0.2022
     14 C           6.8775    1.0778   -0.4833 C.ar    1  LIG1        0.0848
     15 C           7.9111    1.7142   -1.1661 C.ar    1  LIG1        0.1532
     16 C           5.7070    1.7833    0.0684 C.ar    1  LIG1       -0.0094
     17 C           7.0472   -0.3018   -0.4427 C.ar    1  LIG1        0.2276
     18 C           4.9215    2.6166   -0.7506 C.ar    1  LIG1       -0.0527
     19 C           5.3167    1.6250    1.4095 C.ar    1  LIG1       -0.0527
     20 C           4.9136   -1.3365   -0.2680 C.3     1  LIG1        0.1252
     21 C           3.7824    3.2564   -0.2538 C.ar    1  LIG1       -0.0472
     22 C           4.1704    2.2537    1.9073 C.ar    1  LIG1       -0.0472
     23 C           8.9813   -0.2211   -1.6506 C.ar    1  LIG1        0.1219
     24 C           4.7493   -1.4248   -1.7860 C.3     1  LIG1        0.1267
     25 C           3.4082    3.0646    1.0721 C.ar    1  LIG1        0.0179
     26 C           2.9593   -1.3070   -3.2789 C.ar    1  LIG1        0.3180
     27 C           1.2313   -0.5909   -4.5860 C.ar    1  LIG1        0.0483
     28 C           3.3261   -1.0190   -5.5106 C.ar    1  LIG1        0.0483
     29 C           2.0236   -0.6152   -5.7088 C.ar    1  LIG1        0.0543
     30 H          10.2547    2.5354    0.3593 H       1  LIG1        0.1456
     31 H          10.7309    4.1306    0.5548 H       1  LIG1        0.1456
     32 H           8.5693    3.3704   -2.1209 H       1  LIG1        0.1763
     33 H           5.1869    2.7751   -1.7947 H       1  LIG1        0.0624
     34 H           5.9030    1.0007    2.0822 H       1  LIG1        0.0624
     35 H           4.2359   -0.5808    0.1425 H       1  LIG1        0.0731
     36 H           4.5555   -2.2798    0.1651 H       1  LIG1        0.0731
     37 H           3.1972    3.8954   -0.9096 H       1  LIG1        0.0629
     38 H           3.8854    2.1017    2.9451 H       1  LIG1        0.0629
     39 H           9.8096   -0.7421   -2.1181 H       1  LIG1        0.1049
     40 H           5.0579   -0.4787   -2.2475 H       1  LIG1        0.0732
     41 H           5.3672   -2.2345   -2.1915 H       1  LIG1        0.0732
     42 H           0.1893   -0.2876   -4.6272 H       1  LIG1        0.0843
     43 H           4.0322   -1.0805   -6.3327 H       1  LIG1        0.0843
@<TRIPOS>BOND
     1     1    25    1
     2     2    29    1
     3     3     9    1
     4     3     8    1
     5     3     6    2
     6     3     5    2
     7     4    17    1
     8     4    20    1
     9     7    24    1
    10     7    26    1
    11     9    15    1
    12    10    15   ar
    13    10    23   ar
    14    11    17   ar
    15    11    23   ar
    16    12    26   ar
    17    12    27   ar
    18    13    26   ar
    19    13    28   ar
    20    14    15   ar
    21    14    17   ar
    22    16    18   ar
    23    16    19   ar
    24    16    14    1
    25    18    21   ar
    26    19    22   ar
    27    20    24    1
    28    21    25   ar
    29    22    25   ar
    30    27    29   ar
    31    28    29   ar
    32     8    30    1
    33     8    31    1
    34     9    32    1
    35    18    33    1
    36    19    34    1
    37    20    35    1
    38    20    36    1
    39    21    37    1
    40    22    38    1
    41    23    39    1
    42    24    40    1
    43    24    41    1
    44    27    42    1
    45    28    43    1
@<TRIPOS>MOLECULE
*****
 43 45 0 0 0
SMALL
GASTEIGER

@<TRIPOS>ATOM
      1 BR          1.8231    3.6113    2.4400 Br      1  LIG1       -0.0503
      2 BR          1.4298   -0.0168   -7.3202 Br      1  LIG1       -0.0472
      3 S           7.4258    3.4913   -2.9977 S.O2    1  LIG1        0.1079
      4 O           6.2561   -1.1288    0.3529 O.3     1  LIG1       -0.4724
      5 O           8.6635    3.4822   -3.7326 O.2     1  LIG1       -0.1383
      6 O           6.2362    2.8073   -3.4322 O.2     1  LIG1       -0.1383
      7 O           3.5629   -1.8576   -2.0952 O.3     1  LIG1       -0.4590
      8 N           6.9920    5.0979   -2.8578 N.3     1  LIG1       -0.1906
      9 N           7.7138    3.2026   -1.3667 N.pl3   1  LIG1       -0.1891
     10 N           8.8924    1.2667   -1.5764 N.ar    1  LIG1       -0.2186
     11 N           8.1314   -0.8442   -0.8439 N.ar    1  LIG1       -0.2008
     12 N           1.8373   -0.9970   -3.3262 N.ar    1  LIG1       -0.2022
     13 N           3.9568   -1.4133   -4.3546 N.ar    1  LIG1       -0.2022
     14 C           6.7756    1.1260   -0.3701 C.ar    1  LIG1        0.0848
     15 C           7.7659    1.8060   -1.0785 C.ar    1  LIG1        0.1532
     16 C           5.6143    1.7600    0.3085 C.ar    1  LIG1       -0.0094
     17 C           7.0411   -0.2428   -0.3258 C.ar    1  LIG1        0.2276
     18 C           4.8241    2.7470   -0.3061 C.ar    1  LIG1       -0.0527
     19 C           5.2303    1.3718    1.6091 C.ar    1  LIG1       -0.0527
     20 C           5.0198   -1.4887   -0.2667 C.3     1  LIG1        0.1252
     21 C           3.7144    3.3166    0.3313 C.ar    1  LIG1       -0.0472
     22 C           4.0998    1.9073    2.2408 C.ar    1  LIG1       -0.0472
     23 C           9.0170   -0.0508   -1.4385 C.ar    1  LIG1        0.1219
     24 C           4.8747   -1.3802   -1.7868 C.3     1  LIG1        0.1267
     25 C           3.3489    2.8830    1.5986 C.ar    1  LIG1        0.0179
     26 C           3.1222   -1.3816   -3.3031 C.ar    1  LIG1        0.3180
     27 C           1.3678   -0.5891   -4.5230 C.ar    1  LIG1        0.0483
     28 C           3.4290   -1.0017   -5.5280 C.ar    1  LIG1        0.0483
     29 C           2.1277   -0.5744   -5.6696 C.ar    1  LIG1        0.0543
     30 H           6.0331    5.1629   -2.5180 H       1  LIG1        0.1456
     31 H           7.0821    5.5398   -3.7738 H       1  LIG1        0.1456
     32 H           8.6441    3.5855   -1.1924 H       1  LIG1        0.1763
     33 H           5.0385    3.0840   -1.3134 H       1  LIG1        0.0624
     34 H           5.7991    0.6161    2.1510 H       1  LIG1        0.0624
     35 H           4.2121   -0.9307    0.2212 H       1  LIG1        0.0731
     36 H           4.8390   -2.5343    0.0146 H       1  LIG1        0.0731
     37 H           3.1376    4.0821   -0.1808 H       1  LIG1        0.0629
     38 H           3.8168    1.5489    3.2268 H       1  LIG1        0.0629
     39 H           9.9097   -0.5137   -1.8442 H       1  LIG1        0.1049
     40 H           4.9971   -0.3367   -2.1033 H       1  LIG1        0.0732
     41 H           5.6303   -1.9951   -2.2898 H       1  LIG1        0.0732
     42 H           0.3291   -0.2722   -4.5210 H       1  LIG1        0.0843
     43 H           4.1111   -1.0351   -6.3724 H       1  LIG1        0.0843
@<TRIPOS>BOND
     1     1    25    1
     2     2    29    1
     3     3     9    1
     4     3     8    1
     5     3     6    2
     6     3     5    2
     7     4    17    1
     8     4    20    1
     9     7    24    1
    10     7    26    1
    11     9    15    1
    12    10    15   ar
    13    10    23   ar
    14    11    17   ar
    15    11    23   ar
    16    12    26   ar
    17    12    27   ar
    18    13    26   ar
    19    13    28   ar
    20    14    15   ar
    21    14    17   ar
    22    16    18   ar
    23    16    19   ar
    24    16    14    1
    25    18    21   ar
    26    19    22   ar
    27    20    24    1
    28    21    25   ar
    29    22    25   ar
    30    27    29   ar
    31    28    29   ar
    32     8    30    1
    33     8    31    1
    34     9    32    1
    35    18    33    1
    36    19    34    1
    37    20    35    1
    38    20    36    1
    39    21    37    1
    40    22    38    1
    41    23    39    1
    42    24    40    1
    43    24    41    1
    44    27    42    1
    45    28    43    1
@<TRIPOS>MOLECULE
*****
 43 45 0 0 0
SMALL
GASTEIGER

@<TRIPOS>ATOM
      1 BR          2.2043    4.7785    2.2539 Br      1  LIG1       -0.0503
      2 BR          1.5221    4.2037   -2.9359 Br      1  LIG1       -0.0472
      3 S           7.5452    3.7614   -2.6406 S.O2    1  LIG1        0.1079
      4 O           5.7142   -0.7841    0.0583 O.3     1  LIG1       -0.4724
      5 O           8.6846    4.0730   -3.4606 O.2     1  LIG1       -0.1383
      6 O           6.4319    2.9714   -3.0930 O.2     1  LIG1       -0.1383
      7 O           3.3662   -1.3402   -1.8235 O.3     1  LIG1       -0.4590
      8 N           6.8787    5.2252   -2.1885 N.3     1  LIG1       -0.1906
      9 N           8.0773    3.2878   -1.1287 N.pl3   1  LIG1       -0.1891
     10 N           8.9650    1.2297   -1.3780 N.ar    1  LIG1       -0.2186
     11 N           7.8044   -0.7728   -0.9182 N.ar    1  LIG1       -0.2008
     12 N           1.7307    0.2513   -1.7331 N.ar    1  LIG1       -0.2022
     13 N           3.7619    0.7270   -2.8775 N.ar    1  LIG1       -0.2022
     14 C           6.7535    1.3479   -0.3108 C.ar    1  LIG1        0.0848
     15 C           7.9060    1.8969   -0.8842 C.ar    1  LIG1        0.1532
     16 C           5.6634    2.1565    0.3360 C.ar    1  LIG1       -0.0094
     17 C           6.7766   -0.0448   -0.4197 C.ar    1  LIG1        0.2276
     18 C           4.3421    1.6901    0.4749 C.ar    1  LIG1       -0.0527
     19 C           5.8989    3.4405    0.8741 C.ar    1  LIG1       -0.0527
     20 C           5.4246   -1.9664   -0.7087 C.3     1  LIG1        0.1252
     21 C           3.3174    2.4524    1.0544 C.ar    1  LIG1       -0.0472
     22 C           4.8789    4.2268    1.4345 C.ar    1  LIG1       -0.0472
     23 C           8.8606   -0.0944   -1.3587 C.ar    1  LIG1        0.1219
     24 C           4.7466   -1.6483   -2.0493 C.3     1  LIG1        0.1267
     25 C           3.5874    3.7291    1.5148 C.ar    1  LIG1        0.0179
     26 C           2.9484   -0.0841   -2.1894 C.ar    1  LIG1        0.3180
     27 C           1.3246    1.5158   -1.9856 C.ar    1  LIG1        0.0483
     28 C           3.3105    1.9819   -3.0967 C.ar    1  LIG1        0.0483
     29 C           2.0903    2.4373   -2.6583 C.ar    1  LIG1        0.0543
     30 H           5.9884    5.0453   -1.7232 H       1  LIG1        0.1456
     31 H           6.7394    5.7921   -3.0249 H       1  LIG1        0.1456
     32 H           9.0766    3.4933   -1.1123 H       1  LIG1        0.1763
     33 H           4.0518    0.7045    0.1320 H       1  LIG1        0.0624
     34 H           6.8980    3.8708    0.8822 H       1  LIG1        0.0624
     35 H           4.7403   -2.5618   -0.0932 H       1  LIG1        0.0731
     36 H           6.3204   -2.5813   -0.8545 H       1  LIG1        0.0731
     37 H           2.3203    2.0259    1.1313 H       1  LIG1        0.0629
     38 H           5.1151    5.2184    1.8115 H       1  LIG1        0.0629
     39 H           9.6974   -0.6675   -1.7419 H       1  LIG1        0.1049
     40 H           5.3046   -0.8841   -2.5979 H       1  LIG1        0.0732
     41 H           4.7546   -2.5532   -2.6668 H       1  LIG1        0.0732
     42 H           0.3399    1.7651   -1.6019 H       1  LIG1        0.0843
     43 H           3.9929    2.6237   -3.6444 H       1  LIG1        0.0843
@<TRIPOS>BOND
     1     1    25    1
     2     2    29    1
     3     3     9    1
     4     3     8    1
     5     3     6    2
     6     3     5    2
     7     4    17    1
     8     4    20    1
     9     7    24    1
    10     7    26    1
    11     9    15    1
    12    10    15   ar
    13    10    23   ar
    14    11    17   ar
    15    11    23   ar
    16    12    26   ar
    17    12    27   ar
    18    13    26   ar
    19    13    28   ar
    20    14    15   ar
    21    14    17   ar
    22    16    18   ar
    23    16    19   ar
    24    16    14    1
    25    18    21   ar
    26    19    22   ar
    27    20    24    1
    28    21    25   ar
    29    22    25   ar
    30    27    29   ar
    31    28    29   ar
    32     8    30    1
    33     8    31    1
    34     9    32    1
    35    18    33    1
    36    19    34    1
    37    20    35    1
    38    20    36    1
    39    21    37    1
    40    22    38    1
    41    23    39    1
    42    24    40    1
    43    24    41    1
    44    27    42    1
    45    28    43    1
@<TRIPOS>MOLECULE
*****
 43 45 0 0 0
SMALL
GASTEIGER

@<TRIPOS>ATOM
      1 BR          1.9067    4.6240    1.5614 Br      1  LIG1       -0.0503
      2 BR         -0.7024   -5.3147   -1.4158 Br      1  LIG1       -0.0472
      3 S           7.1824    3.6546   -2.8913 S.O2    1  LIG1        0.1079
      4 O           5.8060   -0.7141    0.1805 O.3     1  LIG1       -0.4724
      5 O           8.2038    4.0060   -3.8431 O.2     1  LIG1       -0.1383
      6 O           6.1092    2.7424   -3.1866 O.2     1  LIG1       -0.1383
      7 O           3.8595   -1.5245   -1.8780 O.3     1  LIG1       -0.4590
      8 N           6.4472    5.0829   -2.4356 N.3     1  LIG1       -0.1906
      9 N           7.9158    3.3143   -1.4271 N.pl3   1  LIG1       -0.1891
     10 N           8.9688    1.2938   -1.4784 N.ar    1  LIG1       -0.2186
     11 N           7.9397   -0.7271   -0.7674 N.ar    1  LIG1       -0.2008
     12 N           3.1025   -3.7534   -1.8486 N.ar    1  LIG1       -0.2022
     13 N           1.6353   -1.9036   -1.5076 N.ar    1  LIG1       -0.2022
     14 C           6.7504    1.3653   -0.4714 C.ar    1  LIG1        0.0848
     15 C           7.8631    1.9398   -1.0746 C.ar    1  LIG1        0.1532
     16 C           5.5916    2.1393    0.0097 C.ar    1  LIG1       -0.0094
     17 C           6.8600   -0.0140   -0.3771 C.ar    1  LIG1        0.2276
     18 C           4.2891    1.8669   -0.4425 C.ar    1  LIG1       -0.0527
     19 C           5.7578    3.1860    0.9356 C.ar    1  LIG1       -0.0527
     20 C           5.6614   -2.0519   -0.3241 C.3     1  LIG1        0.1252
     21 C           3.1922    2.6015    0.0186 C.ar    1  LIG1       -0.0472
     22 C           4.6651    3.9281    1.3951 C.ar    1  LIG1       -0.0472
     23 C           8.9494   -0.0272   -1.2926 C.ar    1  LIG1        0.1219
     24 C           5.1802   -2.0668   -1.7803 C.3     1  LIG1        0.1267
     25 C           3.3859    3.6286    0.9364 C.ar    1  LIG1        0.0179
     26 C           2.8457   -2.4399   -1.7249 C.ar    1  LIG1        0.3180
     27 C           2.0362   -4.5771   -1.7573 C.ar    1  LIG1        0.0483
     28 C           0.6080   -2.7744   -1.4100 C.ar    1  LIG1        0.0483
     29 C           0.7530   -4.1360   -1.5350 C.ar    1  LIG1        0.0543
     30 H           5.6566    4.8624   -1.8274 H       1  LIG1        0.1456
     31 H           6.1284    5.5708   -3.2729 H       1  LIG1        0.1456
     32 H           8.8922    3.5933   -1.5223 H       1  LIG1        0.1763
     33 H           4.1137    1.0753   -1.1701 H       1  LIG1        0.0624
     34 H           6.7489    3.4321    1.3140 H       1  LIG1        0.0624
     35 H           4.9115   -2.5314    0.3149 H       1  LIG1        0.0731
     36 H           6.5877   -2.6242   -0.1985 H       1  LIG1        0.0731
     37 H           2.1977    2.3563   -0.3458 H       1  LIG1        0.0629
     38 H           4.8249    4.7286    2.1129 H       1  LIG1        0.0629
     39 H           9.8273   -0.5840   -1.6026 H       1  LIG1        0.1049
     40 H           5.8104   -1.4201   -2.3993 H       1  LIG1        0.0732
     41 H           5.2683   -3.0684   -2.2152 H       1  LIG1        0.0732
     42 H           2.2624   -5.6325   -1.8791 H       1  LIG1        0.0843
     43 H          -0.3609   -2.3186   -1.2283 H       1  LIG1        0.0843
@<TRIPOS>BOND
     1     1    25    1
     2     2    29    1
     3     3     9    1
     4     3     8    1
     5     3     6    2
     6     3     5    2
     7     4    17    1
     8     4    20    1
     9     7    24    1
    10     7    26    1
    11     9    15    1
    12    10    15   ar
    13    10    23   ar
    14    11    17   ar
    15    11    23   ar
    16    12    26   ar
    17    12    27   ar
    18    13    26   ar
    19    13    28   ar
    20    14    15   ar
    21    14    17   ar
    22    16    18   ar
    23    16    19   ar
    24    16    14    1
    25    18    21   ar
    26    19    22   ar
    27    20    24    1
    28    21    25   ar
    29    22    25   ar
    30    27    29   ar
    31    28    29   ar
    32     8    30    1
    33     8    31    1
    34     9    32    1
    35    18    33    1
    36    19    34    1
    37    20    35    1
    38    20    36    1
    39    21    37    1
    40    22    38    1
    41    23    39    1
    42    24    40    1
    43    24    41    1
    44    27    42    1
    45    28    43    1
@<TRIPOS>MOLECULE
*****
 43 45 0 0 0
SMALL
GASTEIGER

@<TRIPOS>ATOM
      1 BR          1.8003    3.4482    2.4497 Br      1  LIG1       -0.0503
      2 BR         -0.2691   -5.3394   -1.1932 Br      1  LIG1       -0.0472
      3 S           7.5052    3.5599   -2.9012 S.O2    1  LIG1        0.1079
      4 O           6.1497   -1.1887    0.0409 O.3     1  LIG1       -0.4724
      5 O           8.7700    3.6258   -3.5851 O.2     1  LIG1       -0.1383
      6 O           6.3675    2.8273   -3.3969 O.2     1  LIG1       -0.1383
      7 O           3.5476   -1.0278   -2.6553 O.3     1  LIG1       -0.4590
      8 N           6.9861    5.1366   -2.7384 N.3     1  LIG1       -0.1906
      9 N           7.7479    3.2389   -1.2676 N.pl3   1  LIG1       -0.1891
     10 N           8.9661    1.3224   -1.4693 N.ar    1  LIG1       -0.2186
     11 N           8.1485   -0.8241   -0.9105 N.ar    1  LIG1       -0.2008
     12 N           3.1011   -3.3152   -2.4772 N.ar    1  LIG1       -0.2022
     13 N           1.4753   -1.6592   -1.9045 N.ar    1  LIG1       -0.2022
     14 C           6.7833    1.1221   -0.4062 C.ar    1  LIG1        0.0848
     15 C           7.8122    1.8374   -1.0140 C.ar    1  LIG1        0.1532
     16 C           5.6211    1.7329    0.2778 C.ar    1  LIG1       -0.0094
     17 C           7.0223   -0.2509   -0.4393 C.ar    1  LIG1        0.2276
     18 C           4.7757    2.6624   -0.3494 C.ar    1  LIG1       -0.0527
     19 C           5.2889    1.3518    1.5955 C.ar    1  LIG1       -0.0527
     20 C           4.8702   -1.2313   -0.5990 C.3     1  LIG1        0.1252
     21 C           3.6532    3.1895    0.3006 C.ar    1  LIG1       -0.0472
     22 C           4.1523    1.8522    2.2418 C.ar    1  LIG1       -0.0472
     23 C           9.0789   -0.0016   -1.3899 C.ar    1  LIG1        0.1219
     24 C           4.8633   -1.2531   -2.1355 C.3     1  LIG1        0.1267
     25 C           3.3416    2.7738    1.5900 C.ar    1  LIG1        0.0179
     26 C           2.6809   -2.0470   -2.3463 C.ar    1  LIG1        0.3180
     27 C           2.2045   -4.2663   -2.1368 C.ar    1  LIG1        0.0483
     28 C           0.6248   -2.6517   -1.5694 C.ar    1  LIG1        0.0483
     29 C           0.9416   -3.9869   -1.6688 C.ar    1  LIG1        0.0543
     30 H           6.0153    5.1437   -2.4272 H       1  LIG1        0.1456
     31 H           7.0776    5.6034   -3.6427 H       1  LIG1        0.1456
     32 H           8.6642    3.6357   -1.0579 H       1  LIG1        0.1763
     33 H           4.9543    2.9721   -1.3741 H       1  LIG1        0.0624
     34 H           5.9015    0.6235    2.1275 H       1  LIG1        0.0624
     35 H           4.2179   -0.4397   -0.2189 H       1  LIG1        0.0731
     36 H           4.4043   -2.1561   -0.2385 H       1  LIG1        0.0731
     37 H           3.0218    3.9055   -0.2188 H       1  LIG1        0.0629
     38 H           3.9080    1.5067    3.2424 H       1  LIG1        0.0629
     39 H           9.9984   -0.4465   -1.7538 H       1  LIG1        0.1049
     40 H           5.4753   -0.4356   -2.5308 H       1  LIG1        0.0732
     41 H           5.3153   -2.1696   -2.5332 H       1  LIG1        0.0732
     42 H           2.5558   -5.2870   -2.2573 H       1  LIG1        0.0843
     43 H          -0.3440   -2.3201   -1.2078 H       1  LIG1        0.0843
@<TRIPOS>BOND
     1     1    25    1
     2     2    29    1
     3     3     9    1
     4     3     8    1
     5     3     6    2
     6     3     5    2
     7     4    17    1
     8     4    20    1
     9     7    24    1
    10     7    26    1
    11     9    15    1
    12    10    15   ar
    13    10    23   ar
    14    11    17   ar
    15    11    23   ar
    16    12    26   ar
    17    12    27   ar
    18    13    26   ar
    19    13    28   ar
    20    14    15   ar
    21    14    17   ar
    22    16    18   ar
    23    16    19   ar
    24    16    14    1
    25    18    21   ar
    26    19    22   ar
    27    20    24    1
    28    21    25   ar
    29    22    25   ar
    30    27    29   ar
    31    28    29   ar
    32     8    30    1
    33     8    31    1
    34     9    32    1
    35    18    33    1
    36    19    34    1
    37    20    35    1
    38    20    36    1
    39    21    37    1
    40    22    38    1
    41    23    39    1
    42    24    40    1
    43    24    41    1
    44    27    42    1
    45    28    43    1
@<TRIPOS>MOLECULE
*****
 43 45 0 0 0
SMALL
GASTEIGER

@<TRIPOS>ATOM
      1 BR          1.8909    3.5906    2.4462 Br      1  LIG1       -0.0503
      2 BR          1.0016   -2.2801   -7.1718 Br      1  LIG1       -0.0472
      3 S           7.4910    3.6065   -2.9590 S.O2    1  LIG1        0.1079
      4 O           6.3470   -1.1469    0.2992 O.3     1  LIG1       -0.4724
      5 O           8.7519    3.6542   -3.6526 O.2     1  LIG1       -0.1383
      6 O           6.3286    2.9207   -3.4592 O.2     1  LIG1       -0.1383
      7 O           3.3061   -1.5940   -1.7401 O.3     1  LIG1       -0.4590
      8 N           7.0197    5.1973   -2.7617 N.3     1  LIG1       -0.1906
      9 N           7.7332    3.2535   -1.3358 N.pl3   1  LIG1       -0.1891
     10 N           8.9357    1.3321   -1.6011 N.ar    1  LIG1       -0.2186
     11 N           8.2031   -0.7973   -0.8893 N.ar    1  LIG1       -0.2008
     12 N           3.6803   -1.7547   -4.0578 N.ar    1  LIG1       -0.2022
     13 N           1.4941   -1.8026   -3.0981 N.ar    1  LIG1       -0.2022
     14 C           6.8184    1.1398   -0.4059 C.ar    1  LIG1        0.0848
     15 C           7.8003    1.8462   -1.1012 C.ar    1  LIG1        0.1532
     16 C           5.6680    1.7701    0.2818 C.ar    1  LIG1       -0.0094
     17 C           7.0961   -0.2262   -0.3689 C.ar    1  LIG1        0.2276
     18 C           4.7962    2.6544   -0.3770 C.ar    1  LIG1       -0.0527
     19 C           5.3784    1.4729    1.6291 C.ar    1  LIG1       -0.0527
     20 C           5.0020   -1.3480   -0.1346 C.3     1  LIG1        0.1252
     21 C           3.6898    3.2168    0.2700 C.ar    1  LIG1       -0.0472
     22 C           4.2516    2.0027    2.2727 C.ar    1  LIG1       -0.0472
     23 C           9.0783    0.0159   -1.4753 C.ar    1  LIG1        0.1219
     24 C           4.7098   -1.3673   -1.6340 C.3     1  LIG1        0.1267
     25 C           3.4151    2.8770    1.5883 C.ar    1  LIG1        0.0179
     26 C           2.8277   -1.7060   -3.0200 C.ar    1  LIG1        0.3180
     27 C           3.1082   -1.9203   -5.2716 C.ar    1  LIG1        0.0483
     28 C           0.9792   -1.9647   -4.3348 C.ar    1  LIG1        0.0483
     29 C           1.7524   -2.0350   -5.4694 C.ar    1  LIG1        0.0543
     30 H           6.0531    5.2261   -2.4388 H       1  LIG1        0.1456
     31 H           7.1165    5.6780   -3.6580 H       1  LIG1        0.1456
     32 H           8.6480    3.6460   -1.1116 H       1  LIG1        0.1763
     33 H           4.9478    2.9057   -1.4225 H       1  LIG1        0.0624
     34 H           6.0126    0.7871    2.1900 H       1  LIG1        0.0624
     35 H           4.3315   -0.6503    0.3767 H       1  LIG1        0.0731
     36 H           4.7110   -2.3285    0.2660 H       1  LIG1        0.0731
     37 H           3.0431    3.9007   -0.2732 H       1  LIG1        0.0629
     38 H           4.0355    1.7150    3.2978 H       1  LIG1        0.0629
     39 H           9.9800   -0.4297   -1.8790 H       1  LIG1        0.1049
     40 H           4.9694   -0.4080   -2.0982 H       1  LIG1        0.0732
     41 H           5.2898   -2.1666   -2.1134 H       1  LIG1        0.0732
     42 H           3.8090   -1.9611   -6.1009 H       1  LIG1        0.0843
     43 H          -0.1030   -2.0422   -4.3724 H       1  LIG1        0.0843
@<TRIPOS>BOND
     1     1    25    1
     2     2    29    1
     3     3     9    1
     4     3     8    1
     5     3     6    2
     6     3     5    2
     7     4    17    1
     8     4    20    1
     9     7    24    1
    10     7    26    1
    11     9    15    1
    12    10    15   ar
    13    10    23   ar
    14    11    17   ar
    15    11    23   ar
    16    12    26   ar
    17    12    27   ar
    18    13    26   ar
    19    13    28   ar
    20    14    15   ar
    21    14    17   ar
    22    16    18   ar
    23    16    19   ar
    24    16    14    1
    25    18    21   ar
    26    19    22   ar
    27    20    24    1
    28    21    25   ar
    29    22    25   ar
    30    27    29   ar
    31    28    29   ar
    32     8    30    1
    33     8    31    1
    34     9    32    1
    35    18    33    1
    36    19    34    1
    37    20    35    1
    38    20    36    1
    39    21    37    1
    40    22    38    1
    41    23    39    1
    42    24    40    1
    43    24    41    1
    44    27    42    1
    45    28    43    1
@<TRIPOS>MOLECULE
*****
 43 45 0 0 0
SMALL
GASTEIGER

@<TRIPOS>ATOM
      1 BR          1.3068    2.7981    1.2967 Br      1  LIG1       -0.0503
      2 BR         11.9205   -6.9600   -4.7231 Br      1  LIG1       -0.0472
      3 S           7.1542    3.3606   -3.1318 S.O2    1  LIG1        0.1079
      4 O           6.8678   -1.0902    0.2049 O.3     1  LIG1       -0.4724
      5 O           7.0798    4.7299   -3.5834 O.2     1  LIG1       -0.1383
      6 O           7.8571    2.3464   -3.8750 O.2     1  LIG1       -0.1383
      7 O           8.2540   -4.3600   -0.8128 O.3     1  LIG1       -0.4590
      8 N           5.5885    2.8225   -3.0079 N.3     1  LIG1       -0.1906
      9 N           7.6421    3.3692   -1.5310 N.pl3   1  LIG1       -0.1891
     10 N           9.3057    1.9002   -1.1418 N.ar    1  LIG1       -0.2186
     11 N           8.9837   -0.2831   -0.3022 N.ar    1  LIG1       -0.2008
     12 N           9.0256   -6.2552   -1.8493 N.ar    1  LIG1       -0.2022
     13 N           9.8812   -4.1294   -2.5061 N.ar    1  LIG1       -0.2022
     14 C           7.0686    1.2048   -0.4324 C.ar    1  LIG1        0.0848
     15 C           7.9855    2.1014   -0.9850 C.ar    1  LIG1        0.1532
     16 C           5.6691    1.5697   -0.0637 C.ar    1  LIG1       -0.0094
     17 C           7.6655   -0.0294   -0.1715 C.ar    1  LIG1        0.2276
     18 C           5.3701    2.8610    0.4284 C.ar    1  LIG1       -0.0527
     19 C           4.5913    0.6670   -0.1308 C.ar    1  LIG1       -0.0527
     20 C           7.5003   -2.3722    0.3465 C.3     1  LIG1        0.1252
     21 C           4.0774    3.2367    0.8125 C.ar    1  LIG1       -0.0472
     22 C           3.2985    1.0252    0.2829 C.ar    1  LIG1       -0.0472
     23 C           9.7448    0.7012   -0.7762 C.ar    1  LIG1        0.1219
     24 C           8.1147   -2.9425   -0.9414 C.3     1  LIG1        0.1267
     25 C           3.0470    2.3109    0.7467 C.ar    1  LIG1        0.0179
     26 C           9.0709   -4.9163   -1.7757 C.ar    1  LIG1        0.3180
     27 C           9.8684   -6.8310   -2.7354 C.ar    1  LIG1        0.0483
     28 C          10.7106   -4.7578   -3.3662 C.ar    1  LIG1        0.0483
     29 C          10.7464   -6.1227   -3.5225 C.ar    1  LIG1        0.0543
     30 H           5.5615    1.8053   -3.0575 H       1  LIG1        0.1456
     31 H           5.0300    3.2429   -3.7510 H       1  LIG1        0.1456
     32 H           8.4861    3.9418   -1.4972 H       1  LIG1        0.1763
     33 H           6.1508    3.6139    0.5254 H       1  LIG1        0.0624
     34 H           4.7304   -0.3473   -0.4979 H       1  LIG1        0.0624
     35 H           6.7141   -3.0568    0.6883 H       1  LIG1        0.0731
     36 H           8.2352   -2.3469    1.1609 H       1  LIG1        0.0731
     37 H           3.8980    4.2491    1.1655 H       1  LIG1        0.0629
     38 H           2.5003    0.2885    0.2420 H       1  LIG1        0.0629
     39 H          10.8042    0.4992   -0.8891 H       1  LIG1        0.1049
     40 H           7.4786   -2.7118   -1.8042 H       1  LIG1        0.0732
     41 H           9.0935   -2.4794   -1.0913 H       1  LIG1        0.0732
     42 H           9.8107   -7.9147   -2.7824 H       1  LIG1        0.0843
     43 H          11.3648   -4.1013   -3.9327 H       1  LIG1        0.0843
@<TRIPOS>BOND
     1     1    25    1
     2     2    29    1
     3     3     9    1
     4     3     8    1
     5     3     6    2
     6     3     5    2
     7     4    17    1
     8     4    20    1
     9     7    24    1
    10     7    26    1
    11     9    15    1
    12    10    15   ar
    13    10    23   ar
    14    11    17   ar
    15    11    23   ar
    16    12    26   ar
    17    12    27   ar
    18    13    26   ar
    19    13    28   ar
    20    14    15   ar
    21    14    17   ar
    22    16    18   ar
    23    16    19   ar
    24    16    14    1
    25    18    21   ar
    26    19    22   ar
    27    20    24    1
    28    21    25   ar
    29    22    25   ar
    30    27    29   ar
    31    28    29   ar
    32     8    30    1
    33     8    31    1
    34     9    32    1
    35    18    33    1
    36    19    34    1
    37    20    35    1
    38    20    36    1
    39    21    37    1
    40    22    38    1
    41    23    39    1
    42    24    40    1
    43    24    41    1
    44    27    42    1
    45    28    43    1
@<TRIPOS>MOLECULE
*****
 43 45 0 0 0
SMALL
GASTEIGER

@<TRIPOS>ATOM
      1 BR          1.4221    2.8972    1.2942 Br      1  LIG1       -0.0503
      2 BR         10.2775   -4.3213   -6.8054 Br      1  LIG1       -0.0472
      3 S           7.2275    3.3420   -3.1770 S.O2    1  LIG1        0.1079
      4 O           6.7722   -1.1574    0.1519 O.3     1  LIG1       -0.4724
      5 O           7.1034    4.7341   -3.5269 O.2     1  LIG1       -0.1383
      6 O           7.9632    2.4157   -3.9984 O.2     1  LIG1       -0.1383
      7 O           7.1428   -3.1184   -1.8874 O.3     1  LIG1       -0.4590
      8 N           5.6832    2.7421   -3.0788 N.3     1  LIG1       -0.1906
      9 N           7.7443    3.2562   -1.5893 N.pl3   1  LIG1       -0.1891
     10 N           9.3354    1.6784   -1.2908 N.ar    1  LIG1       -0.2186
     11 N           8.9195   -0.4947   -0.4481 N.ar    1  LIG1       -0.2008
     12 N           7.5406   -2.7533   -4.1236 N.ar    1  LIG1       -0.2022
     13 N           8.8312   -4.3737   -2.9313 N.ar    1  LIG1       -0.2022
     14 C           7.0858    1.0995   -0.5343 C.ar    1  LIG1        0.0848
     15 C           8.0338    1.9528   -1.0984 C.ar    1  LIG1        0.1532
     16 C           5.7119    1.5231   -0.1413 C.ar    1  LIG1       -0.0094
     17 C           7.6231   -0.1632   -0.2782 C.ar    1  LIG1        0.2276
     18 C           5.4840    2.7998    0.4185 C.ar    1  LIG1       -0.0527
     19 C           4.5890    0.6819   -0.2599 C.ar    1  LIG1       -0.0527
     20 C           7.3317   -2.4407    0.4500 C.3     1  LIG1        0.1252
     21 C           4.2122    3.2186    0.8271 C.ar    1  LIG1       -0.0472
     22 C           3.3173    1.0829    0.1749 C.ar    1  LIG1       -0.0472
     23 C           9.7149    0.4499   -0.9495 C.ar    1  LIG1        0.1219
     24 C           7.9644   -3.2035   -0.7218 C.3     1  LIG1        0.1267
     25 C           3.1346    2.3519    0.7122 C.ar    1  LIG1        0.0179
     26 C           7.8740   -3.4308   -3.0148 C.ar    1  LIG1        0.3180
     27 C           8.2691   -3.0345   -5.2267 C.ar    1  LIG1        0.0483
     28 C           9.5215   -4.6194   -4.0681 C.ar    1  LIG1        0.0483
     29 C           9.2826   -3.9654   -5.2540 C.ar    1  LIG1        0.0543
     30 H           5.6948    1.7265   -3.1700 H       1  LIG1        0.1456
     31 H           5.1092    3.1674   -3.8067 H       1  LIG1        0.1456
     32 H           8.6134    3.7882   -1.5476 H       1  LIG1        0.1763
     33 H           6.3049    3.5028    0.5498 H       1  LIG1        0.0624
     34 H           4.6817   -0.3146   -0.6878 H       1  LIG1        0.0624
     35 H           6.4850   -3.0371    0.8106 H       1  LIG1        0.0731
     36 H           8.0315   -2.3611    1.2905 H       1  LIG1        0.0731
     37 H           4.0844    4.2175    1.2360 H       1  LIG1        0.0629
     38 H           2.4815    0.3931    0.0908 H       1  LIG1        0.0629
     39 H          10.7569    0.1912   -1.1012 H       1  LIG1        0.1049
     40 H           8.9702   -2.8154   -0.9186 H       1  LIG1        0.0732
     41 H           8.0701   -4.2562   -0.4286 H       1  LIG1        0.0732
     42 H           7.9995   -2.4629   -6.1102 H       1  LIG1        0.0843
     43 H          10.2940   -5.3767   -3.9797 H       1  LIG1        0.0843
@<TRIPOS>BOND
     1     1    25    1
     2     2    29    1
     3     3     9    1
     4     3     8    1
     5     3     6    2
     6     3     5    2
     7     4    17    1
     8     4    20    1
     9     7    24    1
    10     7    26    1
    11     9    15    1
    12    10    15   ar
    13    10    23   ar
    14    11    17   ar
    15    11    23   ar
    16    12    26   ar
    17    12    27   ar
    18    13    26   ar
    19    13    28   ar
    20    14    15   ar
    21    14    17   ar
    22    16    18   ar
    23    16    19   ar
    24    16    14    1
    25    18    21   ar
    26    19    22   ar
    27    20    24    1
    28    21    25   ar
    29    22    25   ar
    30    27    29   ar
    31    28    29   ar
    32     8    30    1
    33     8    31    1
    34     9    32    1
    35    18    33    1
    36    19    34    1
    37    20    35    1
    38    20    36    1
    39    21    37    1
    40    22    38    1
    41    23    39    1
    42    24    40    1
    43    24    41    1
    44    27    42    1
    45    28    43    1
@<TRIPOS>MOLECULE
*****
 43 45 0 0 0
SMALL
GASTEIGER

@<TRIPOS>ATOM
      1 BR          1.3197    2.8636    1.1693 Br      1  LIG1       -0.0503
      2 BR          9.7860    0.1020   -6.4767 Br      1  LIG1       -0.0472
      3 S           7.2115    3.3544   -3.0726 S.O2    1  LIG1        0.1079
      4 O           6.8354   -1.0189    0.4591 O.3     1  LIG1       -0.4724
      5 O           6.9947    4.7304   -3.4438 O.2     1  LIG1       -0.1383
      6 O           8.0270    2.4818   -3.8739 O.2     1  LIG1       -0.1383
      7 O           6.9982   -2.5407   -1.9281 O.3     1  LIG1       -0.4590
      8 N           5.7144    2.6466   -2.9900 N.3     1  LIG1       -0.1906
      9 N           7.7181    3.3263   -1.4809 N.pl3   1  LIG1       -0.1891
     10 N           9.3470    1.7968   -1.1065 N.ar    1  LIG1       -0.2186
     11 N           8.9751   -0.3388   -0.1484 N.ar    1  LIG1       -0.2008
     12 N           6.9671   -1.0384   -3.6627 N.ar    1  LIG1       -0.2022
     13 N           8.9268   -2.3499   -3.2613 N.ar    1  LIG1       -0.2022
     14 C           7.1033    1.1985   -0.3543 C.ar    1  LIG1        0.0848
     15 C           8.0363    2.0490   -0.9433 C.ar    1  LIG1        0.1532
     16 C           5.7073    1.5894   -0.0261 C.ar    1  LIG1       -0.0094
     17 C           7.6668   -0.0330   -0.0257 C.ar    1  LIG1        0.2276
     18 C           5.4248    2.8604    0.5184 C.ar    1  LIG1       -0.0527
     19 C           4.6143    0.7205   -0.2072 C.ar    1  LIG1       -0.0527
     20 C           7.3428   -2.3590    0.4785 C.3     1  LIG1        0.1252
     21 C           4.1241    3.2481    0.8585 C.ar    1  LIG1       -0.0472
     22 C           3.3125    1.0927    0.1554 C.ar    1  LIG1       -0.0472
     23 C           9.7532    0.5994   -0.6888 C.ar    1  LIG1        0.1219
     24 C           7.8660   -2.9131   -0.8560 C.3     1  LIG1        0.1267
     25 C           3.0738    2.3569    0.6833 C.ar    1  LIG1        0.0179
     26 C           7.6701   -1.9574   -2.9803 C.ar    1  LIG1        0.3180
     27 C           7.6172   -0.4599   -4.6991 C.ar    1  LIG1        0.0483
     28 C           9.5295   -1.7174   -4.2913 C.ar    1  LIG1        0.0483
     29 C           8.9141   -0.7533   -5.0518 C.ar    1  LIG1        0.0543
     30 H           5.7843    1.6279   -3.0202 H       1  LIG1        0.1456
     31 H           5.1185    3.0049   -3.7343 H       1  LIG1        0.1456
     32 H           8.5675    3.8878   -1.4433 H       1  LIG1        0.1763
     33 H           6.2244    3.5797    0.6880 H       1  LIG1        0.0624
     34 H           4.7584   -0.2720   -0.6313 H       1  LIG1        0.0624
     35 H           6.4898   -2.9782    0.7809 H       1  LIG1        0.0731
     36 H           8.0948   -2.4632    1.2697 H       1  LIG1        0.0731
     37 H           3.9509    4.2428    1.2608 H       1  LIG1        0.0629
     38 H           2.4976    0.3860    0.0222 H       1  LIG1        0.0629
     39 H          10.8047    0.3620   -0.8067 H       1  LIG1        0.1049
     40 H           8.9074   -2.6018   -0.9875 H       1  LIG1        0.0732
     41 H           7.8859   -4.0085   -0.8039 H       1  LIG1        0.0732
     42 H           7.0428    0.2823   -5.2459 H       1  LIG1        0.0843
     43 H          10.5535   -2.0251   -4.4829 H       1  LIG1        0.0843
@<TRIPOS>BOND
     1     1    25    1
     2     2    29    1
     3     3     9    1
     4     3     8    1
     5     3     6    2
     6     3     5    2
     7     4    17    1
     8     4    20    1
     9     7    24    1
    10     7    26    1
    11     9    15    1
    12    10    15   ar
    13    10    23   ar
    14    11    17   ar
    15    11    23   ar
    16    12    26   ar
    17    12    27   ar
    18    13    26   ar
    19    13    28   ar
    20    14    15   ar
    21    14    17   ar
    22    16    18   ar
    23    16    19   ar
    24    16    14    1
    25    18    21   ar
    26    19    22   ar
    27    20    24    1
    28    21    25   ar
    29    22    25   ar
    30    27    29   ar
    31    28    29   ar
    32     8    30    1
    33     8    31    1
    34     9    32    1
    35    18    33    1
    36    19    34    1
    37    20    35    1
    38    20    36    1
    39    21    37    1
    40    22    38    1
    41    23    39    1
    42    24    40    1
    43    24    41    1
    44    27    42    1
    45    28    43    1
@<TRIPOS>MOLECULE
*****
 43 45 0 0 0
SMALL
GASTEIGER

@<TRIPOS>ATOM
      1 BR          1.6581    2.8699    1.6052 Br      1  LIG1       -0.0503
      2 BR         12.4405   -5.8730   -3.6065 Br      1  LIG1       -0.0472
      3 S           6.9605    3.4122   -3.2826 S.O2    1  LIG1        0.1079
      4 O           7.0504   -1.0841    0.3201 O.3     1  LIG1       -0.4724
      5 O           6.7931    4.8168   -3.5439 O.2     1  LIG1       -0.1383
      6 O           7.5757    2.5275   -4.2371 O.2     1  LIG1       -0.1383
      7 O           8.8052   -4.3069    0.8407 O.3     1  LIG1       -0.4590
      8 N           5.4412    2.8003   -3.0107 N.3     1  LIG1       -0.1906
      9 N           7.6774    3.2507   -1.7821 N.pl3   1  LIG1       -0.1891
     10 N           9.2402    1.6157   -1.8291 N.ar    1  LIG1       -0.2186
     11 N           8.9387   -0.5438   -0.9172 N.ar    1  LIG1       -0.2008
     12 N           9.6293   -5.9060   -0.5721 N.ar    1  LIG1       -0.2022
     13 N          10.4076   -3.6611   -0.7633 N.ar    1  LIG1       -0.2022
     14 C           7.1654    1.0964   -0.6480 C.ar    1  LIG1        0.0848
     15 C           8.0107    1.9274   -1.3829 C.ar    1  LIG1        0.1532
     16 C           5.8501    1.5112   -0.0945 C.ar    1  LIG1       -0.0094
     17 C           7.7279   -0.1647   -0.4588 C.ar    1  LIG1        0.2276
     18 C           5.6600    2.7868    0.4743 C.ar    1  LIG1       -0.0527
     19 C           4.7306    0.6551   -0.1187 C.ar    1  LIG1       -0.0527
     20 C           7.4237   -2.4473    0.0828 C.3     1  LIG1        0.1252
     21 C           4.4162    3.1973    0.9698 C.ar    1  LIG1       -0.0472
     22 C           3.4895    1.0502    0.3972 C.ar    1  LIG1       -0.0472
     23 C           9.6397    0.3710   -1.5832 C.ar    1  LIG1        0.1219
     24 C           8.5483   -2.9119    1.0097 C.3     1  LIG1        0.1267
     25 C           3.3366    2.3240    0.9316 C.ar    1  LIG1        0.0179
     26 C           9.6418   -4.6144   -0.2081 C.ar    1  LIG1        0.3180
     27 C          10.4609   -6.2499   -1.5794 C.ar    1  LIG1        0.0483
     28 C          11.2234   -4.0613   -1.7628 C.ar    1  LIG1        0.0483
     29 C          11.2907   -5.3577   -2.2160 C.ar    1  LIG1        0.0543
     30 H           5.4264    1.8012   -3.2084 H       1  LIG1        0.1456
     31 H           4.7706    3.3026   -3.5928 H       1  LIG1        0.1456
     32 H           8.5514    3.7738   -1.8344 H       1  LIG1        0.1763
     33 H           6.4832    3.4969    0.5317 H       1  LIG1        0.0624
     34 H           4.8054   -0.3439   -0.5438 H       1  LIG1        0.0624
     35 H           7.6392   -2.6415   -0.9762 H       1  LIG1        0.0731
     36 H           6.5338   -3.0530    0.2968 H       1  LIG1        0.0731
     37 H           4.3075    4.1990    1.3773 H       1  LIG1        0.0629
     38 H           2.6533    0.3562    0.3724 H       1  LIG1        0.0629
     39 H          10.6153    0.0759   -1.9526 H       1  LIG1        0.1049
     40 H           9.4542   -2.2992    0.9377 H       1  LIG1        0.0732
     41 H           8.2141   -2.7788    2.0461 H       1  LIG1        0.0732
     42 H          10.4321   -7.2995   -1.8572 H       1  LIG1        0.0843
     43 H          11.8387   -3.2765   -2.1927 H       1  LIG1        0.0843
@<TRIPOS>BOND
     1     1    25    1
     2     2    29    1
     3     3     9    1
     4     3     8    1
     5     3     6    2
     6     3     5    2
     7     4    17    1
     8     4    20    1
     9     7    24    1
    10     7    26    1
    11     9    15    1
    12    10    15   ar
    13    10    23   ar
    14    11    17   ar
    15    11    23   ar
    16    12    26   ar
    17    12    27   ar
    18    13    26   ar
    19    13    28   ar
    20    14    15   ar
    21    14    17   ar
    22    16    18   ar
    23    16    19   ar
    24    16    14    1
    25    18    21   ar
    26    19    22   ar
    27    20    24    1
    28    21    25   ar
    29    22    25   ar
    30    27    29   ar
    31    28    29   ar
    32     8    30    1
    33     8    31    1
    34     9    32    1
    35    18    33    1
    36    19    34    1
    37    20    35    1
    38    20    36    1
    39    21    37    1
    40    22    38    1
    41    23    39    1
    42    24    40    1
    43    24    41    1
    44    27    42    1
    45    28    43    1
@<TRIPOS>MOLECULE
*****
 43 45 0 0 0
SMALL
GASTEIGER

@<TRIPOS>ATOM
      1 BR          1.4623    3.0239    1.3945 Br      1  LIG1       -0.0503
      2 BR          8.8271   -7.6044   -5.8448 Br      1  LIG1       -0.0472
      3 S           7.1947    3.3029   -3.1572 S.O2    1  LIG1        0.1079
      4 O           6.7299   -1.1765    0.2916 O.3     1  LIG1       -0.4724
      5 O           7.1171    4.7028   -3.4981 O.2     1  LIG1       -0.1383
      6 O           7.8583    2.3446   -4.0004 O.2     1  LIG1       -0.1383
      7 O           7.5809   -4.5667   -0.8802 O.3     1  LIG1       -0.4590
      8 N           5.6281    2.7700   -3.0153 N.3     1  LIG1       -0.1906
      9 N           7.7463    3.1878   -1.5832 N.pl3   1  LIG1       -0.1891
     10 N           9.2805    1.5454   -1.3847 N.ar    1  LIG1       -0.2186
     11 N           8.8253   -0.6152   -0.5408 N.ar    1  LIG1       -0.2008
     12 N           7.7495   -6.5626   -1.9889 N.ar    1  LIG1       -0.2022
     13 N           8.1571   -4.5264   -3.1647 N.ar    1  LIG1       -0.2022
     14 C           7.0555    1.0559   -0.4923 C.ar    1  LIG1        0.0848
     15 C           8.0055    1.8720   -1.1091 C.ar    1  LIG1        0.1532
     16 C           5.7040    1.5188   -0.0615 C.ar    1  LIG1       -0.0094
     17 C           7.5630   -0.2242   -0.2621 C.ar    1  LIG1        0.2276
     18 C           5.5042    2.8242    0.4379 C.ar    1  LIG1       -0.0527
     19 C           4.5677    0.6873   -0.1020 C.ar    1  LIG1       -0.0527
     20 C           7.2403   -2.5155    0.3264 C.3     1  LIG1        0.1252
     21 C           4.2466    3.2810    0.8511 C.ar    1  LIG1       -0.0472
     22 C           3.3117    1.1263    0.3440 C.ar    1  LIG1       -0.0472
     23 C           9.6286    0.2969   -1.0853 C.ar    1  LIG1        0.1219
     24 C           7.2715   -3.1836   -1.0527 C.3     1  LIG1        0.1267
     25 C           3.1559    2.4245    0.8114 C.ar    1  LIG1        0.0179
     26 C           7.8186   -5.2246   -2.0662 C.ar    1  LIG1        0.3180
     27 C           8.0420   -7.2389   -3.1214 C.ar    1  LIG1        0.0483
     28 C           8.4524   -5.2547   -4.2633 C.ar    1  LIG1        0.0483
     29 C           8.4089   -6.6285   -4.2976 C.ar    1  LIG1        0.0543
     30 H           5.5887    1.7645   -3.1719 H       1  LIG1        0.1456
     31 H           5.0435    3.2714   -3.6841 H       1  LIG1        0.1456
     32 H           8.6350    3.6897   -1.5604 H       1  LIG1        0.1763
     33 H           6.3339    3.5249    0.5109 H       1  LIG1        0.0624
     34 H           4.6322   -0.3321   -0.4767 H       1  LIG1        0.0624
     35 H           6.5627   -3.0874    0.9727 H       1  LIG1        0.0731
     36 H           8.2152   -2.5663    0.8281 H       1  LIG1        0.0731
     37 H           4.1396    4.3038    1.2060 H       1  LIG1        0.0629
     38 H           2.4659    0.4410    0.3200 H       1  LIG1        0.0629
     39 H          10.6457   -0.0062   -1.3103 H       1  LIG1        0.1049
     40 H           6.2913   -3.0799   -1.5354 H       1  LIG1        0.0732
     41 H           8.0152   -2.6831   -1.6814 H       1  LIG1        0.0732
     42 H           7.9720   -8.3197   -3.0374 H       1  LIG1        0.0843
     43 H           8.7379   -4.6723   -5.1342 H       1  LIG1        0.0843
@<TRIPOS>BOND
     1     1    25    1
     2     2    29    1
     3     3     9    1
     4     3     8    1
     5     3     6    2
     6     3     5    2
     7     4    17    1
     8     4    20    1
     9     7    24    1
    10     7    26    1
    11     9    15    1
    12    10    15   ar
    13    10    23   ar
    14    11    17   ar
    15    11    23   ar
    16    12    26   ar
    17    12    27   ar
    18    13    26   ar
    19    13    28   ar
    20    14    15   ar
    21    14    17   ar
    22    16    18   ar
    23    16    19   ar
    24    16    14    1
    25    18    21   ar
    26    19    22   ar
    27    20    24    1
    28    21    25   ar
    29    22    25   ar
    30    27    29   ar
    31    28    29   ar
    32     8    30    1
    33     8    31    1
    34     9    32    1
    35    18    33    1
    36    19    34    1
    37    20    35    1
    38    20    36    1
    39    21    37    1
    40    22    38    1
    41    23    39    1
    42    24    40    1
    43    24    41    1
    44    27    42    1
    45    28    43    1
@<TRIPOS>MOLECULE
*****
 43 45 0 0 0
SMALL
GASTEIGER

@<TRIPOS>ATOM
      1 BR          1.5256    2.9953    1.9084 Br      1  LIG1       -0.0503
      2 BR          5.4071   -8.1937    3.6171 Br      1  LIG1       -0.0472
      3 S           7.5328    3.5943   -3.1940 S.O2    1  LIG1        0.1079
      4 O           6.4555   -1.1502   -0.0558 O.3     1  LIG1       -0.4724
      5 O           7.0338    4.9342   -3.3668 O.2     1  LIG1       -0.1383
      6 O           8.7078    3.1332   -3.8864 O.2     1  LIG1       -0.1383
      7 O           7.7712   -4.5854   -0.4788 O.3     1  LIG1       -0.4590
      8 N           6.3008    2.5719   -3.6618 N.3     1  LIG1       -0.1906
      9 N           7.6462    3.2885   -1.5468 N.pl3   1  LIG1       -0.1891
     10 N           9.1313    1.5618   -1.5044 N.ar    1  LIG1       -0.2186
     11 N           8.5745   -0.6418   -0.8737 N.ar    1  LIG1       -0.2008
     12 N           7.9904   -6.3315    0.9806 N.ar    1  LIG1       -0.2022
     13 N           5.8744   -5.2549    0.7443 N.ar    1  LIG1       -0.2022
     14 C           6.9162    1.1248   -0.5867 C.ar    1  LIG1        0.0848
     15 C           7.8790    1.9336   -1.1890 C.ar    1  LIG1        0.1532
     16 C           5.6203    1.5940   -0.0113 C.ar    1  LIG1       -0.0094
     17 C           7.3563   -0.1970   -0.4968 C.ar    1  LIG1        0.2276
     18 C           4.8026    2.5604   -0.6217 C.ar    1  LIG1       -0.0527
     19 C           5.1590    1.0897    1.2264 C.ar    1  LIG1       -0.0527
     20 C           7.0414   -2.3915    0.3474 C.3     1  LIG1        0.1252
     21 C           3.5937    2.9862   -0.0518 C.ar    1  LIG1       -0.0472
     22 C           3.9429    1.4919    1.7949 C.ar    1  LIG1       -0.0472
     23 C           9.4208    0.2761   -1.3324 C.ar    1  LIG1        0.1219
     24 C           7.0224   -3.4113   -0.7934 C.3     1  LIG1        0.1267
     25 C           3.1640    2.4416    1.1501 C.ar    1  LIG1        0.0179
     26 C           7.1732   -5.4167    0.4387 C.ar    1  LIG1        0.3180
     27 C           7.4430   -7.1414    1.9120 C.ar    1  LIG1        0.0483
     28 C           5.3788   -6.0932    1.6805 C.ar    1  LIG1        0.0483
     29 C           6.1279   -7.0619    2.3066 C.ar    1  LIG1        0.0543
     30 H           6.6998    1.6754   -3.9446 H       1  LIG1        0.1456
     31 H           5.7979    3.0029   -4.4392 H       1  LIG1        0.1456
     32 H           8.4306    3.8480   -1.2140 H       1  LIG1        0.1763
     33 H           5.0781    3.0162   -1.5653 H       1  LIG1        0.0624
     34 H           5.7477    0.3600    1.7805 H       1  LIG1        0.0624
     35 H           6.4273   -2.7562    1.1778 H       1  LIG1        0.0731
     36 H           8.0442   -2.2760    0.7797 H       1  LIG1        0.0731
     37 H           3.0025    3.7420   -0.5628 H       1  LIG1        0.0629
     38 H           3.6225    1.0567    2.7377 H       1  LIG1        0.0629
     39 H          10.4193   -0.0516   -1.6000 H       1  LIG1        0.1049
     40 H           5.9986   -3.6462   -1.1134 H       1  LIG1        0.0732
     41 H           7.4937   -2.9738   -1.6810 H       1  LIG1        0.0732
     42 H           8.1256   -7.8686    2.3405 H       1  LIG1        0.0843
     43 H           4.3285   -5.9461    1.9156 H       1  LIG1        0.0843
@<TRIPOS>BOND
     1     1    25    1
     2     2    29    1
     3     3     9    1
     4     3     8    1
     5     3     6    2
     6     3     5    2
     7     4    17    1
     8     4    20    1
     9     7    24    1
    10     7    26    1
    11     9    15    1
    12    10    15   ar
    13    10    23   ar
    14    11    17   ar
    15    11    23   ar
    16    12    26   ar
    17    12    27   ar
    18    13    26   ar
    19    13    28   ar
    20    14    15   ar
    21    14    17   ar
    22    16    18   ar
    23    16    19   ar
    24    16    14    1
    25    18    21   ar
    26    19    22   ar
    27    20    24    1
    28    21    25   ar
    29    22    25   ar
    30    27    29   ar
    31    28    29   ar
    32     8    30    1
    33     8    31    1
    34     9    32    1
    35    18    33    1
    36    19    34    1
    37    20    35    1
    38    20    36    1
    39    21    37    1
    40    22    38    1
    41    23    39    1
    42    24    40    1
    43    24    41    1
    44    27    42    1
    45    28    43    1
@<TRIPOS>MOLECULE
*****
 43 45 0 0 0
SMALL
GASTEIGER

@<TRIPOS>ATOM
      1 BR          1.5015    2.9926    1.5176 Br      1  LIG1       -0.0503
      2 BR          5.3589   -8.3226    3.5925 Br      1  LIG1       -0.0472
      3 S           7.5886    3.7501   -3.1422 S.O2    1  LIG1        0.1079
      4 O           6.5751   -1.1409   -0.0037 O.3     1  LIG1       -0.4724
      5 O           6.4010    4.5285   -3.3651 O.2     1  LIG1       -0.1383
      6 O           8.8933    4.2415   -3.5055 O.2     1  LIG1       -0.1383
      7 O           7.6960   -4.6365   -0.4518 O.3     1  LIG1       -0.4590
      8 N           7.3878    2.3212   -3.9749 N.3     1  LIG1       -0.1906
      9 N           7.6400    3.2918   -1.5414 N.pl3   1  LIG1       -0.1891
     10 N           9.1711    1.5754   -1.6214 N.ar    1  LIG1       -0.2186
     11 N           8.6702   -0.6317   -0.9102 N.ar    1  LIG1       -0.2008
     12 N           7.7561   -6.6190    0.6850 N.ar    1  LIG1       -0.2022
     13 N           5.9525   -5.1057    1.0622 N.ar    1  LIG1       -0.2022
     14 C           6.9797    1.0966   -0.6717 C.ar    1  LIG1        0.0848
     15 C           7.9209    1.9276   -1.2706 C.ar    1  LIG1        0.1532
     16 C           5.6596    1.5447   -0.1703 C.ar    1  LIG1       -0.0094
     17 C           7.4457   -0.2052   -0.5331 C.ar    1  LIG1        0.2276
     18 C           4.7592    2.2688   -0.9707 C.ar    1  LIG1       -0.0527
     19 C           5.2640    1.2643    1.1534 C.ar    1  LIG1       -0.0527
     20 C           7.1655   -2.3857    0.3775 C.3     1  LIG1        0.1252
     21 C           3.5277    2.7083   -0.4689 C.ar    1  LIG1       -0.0472
     22 C           4.0269    1.6829    1.6542 C.ar    1  LIG1       -0.0472
     23 C           9.4845    0.2956   -1.4176 C.ar    1  LIG1        0.1219
     24 C           6.9816   -3.4312   -0.7232 C.3     1  LIG1        0.1267
     25 C           3.1664    2.4102    0.8406 C.ar    1  LIG1        0.0179
     26 C           7.0908   -5.4780    0.4523 C.ar    1  LIG1        0.3180
     27 C           7.2191   -7.4437    1.6092 C.ar    1  LIG1        0.0483
     28 C           5.4628   -5.9657    1.9816 C.ar    1  LIG1        0.0483
     29 C           6.0638   -7.1609    2.2987 C.ar    1  LIG1        0.0543
     30 H           8.2925    1.8414   -3.9970 H       1  LIG1        0.1456
     31 H           7.0818    2.5309   -4.9251 H       1  LIG1        0.1456
     32 H           8.3390    3.8825   -1.0939 H       1  LIG1        0.1763
     33 H           5.0014    2.5069   -2.0046 H       1  LIG1        0.0624
     34 H           5.9222    0.7053    1.8169 H       1  LIG1        0.0624
     35 H           6.6381   -2.7005    1.2833 H       1  LIG1        0.0731
     36 H           8.2138   -2.2991    0.6895 H       1  LIG1        0.0731
     37 H           2.8651    3.2823   -1.1115 H       1  LIG1        0.0629
     38 H           3.7519    1.4372    2.6766 H       1  LIG1        0.0629
     39 H          10.4842   -0.0226   -1.6940 H       1  LIG1        0.1049
     40 H           5.9204   -3.6182   -0.9367 H       1  LIG1        0.0732
     41 H           7.3870   -3.0366   -1.6625 H       1  LIG1        0.0732
     42 H           7.7741   -8.3622    1.7777 H       1  LIG1        0.0843
     43 H           4.5475   -5.6416    2.4686 H       1  LIG1        0.0843
@<TRIPOS>BOND
     1     1    25    1
     2     2    29    1
     3     3     9    1
     4     3     8    1
     5     3     6    2
     6     3     5    2
     7     4    17    1
     8     4    20    1
     9     7    24    1
    10     7    26    1
    11     9    15    1
    12    10    15   ar
    13    10    23   ar
    14    11    17   ar
    15    11    23   ar
    16    12    26   ar
    17    12    27   ar
    18    13    26   ar
    19    13    28   ar
    20    14    15   ar
    21    14    17   ar
    22    16    18   ar
    23    16    19   ar
    24    16    14    1
    25    18    21   ar
    26    19    22   ar
    27    20    24    1
    28    21    25   ar
    29    22    25   ar
    30    27    29   ar
    31    28    29   ar
    32     8    30    1
    33     8    31    1
    34     9    32    1
    35    18    33    1
    36    19    34    1
    37    20    35    1
    38    20    36    1
    39    21    37    1
    40    22    38    1
    41    23    39    1
    42    24    40    1
    43    24    41    1
    44    27    42    1
    45    28    43    1
@<TRIPOS>MOLECULE
*****
 43 45 0 0 0
SMALL
GASTEIGER

@<TRIPOS>ATOM
      1 BR          1.5555    3.2451    1.2596 Br      1  LIG1       -0.0503
      2 BR          5.5794   -7.7864    3.8799 Br      1  LIG1       -0.0472
      3 S           8.5994    4.0093   -0.1023 S.O2    1  LIG1        0.1079
      4 O           6.5545   -1.1919   -0.0352 O.3     1  LIG1       -0.4724
      5 O          10.0335    3.9634   -0.2443 O.2     1  LIG1       -0.1383
      6 O           7.8956    5.2487    0.0570 O.2     1  LIG1       -0.1383
      7 O           7.7003   -4.6853   -0.7010 O.3     1  LIG1       -0.4590
      8 N           8.1984    3.0821    1.2239 N.3     1  LIG1       -0.1906
      9 N           7.8874    3.1852   -1.3689 N.pl3   1  LIG1       -0.1891
     10 N           9.1966    1.3526   -1.7674 N.ar    1  LIG1       -0.2186
     11 N           8.6721   -0.7780   -0.9027 N.ar    1  LIG1       -0.2008
     12 N           7.5808   -6.6696    0.4289 N.ar    1  LIG1       -0.2022
     13 N           6.0733   -4.9230    0.9677 N.ar    1  LIG1       -0.2022
     14 C           7.0342    1.0083   -0.6734 C.ar    1  LIG1        0.0848
     15 C           8.0083    1.7785   -1.2961 C.ar    1  LIG1        0.1532
     16 C           5.7076    1.5216   -0.2116 C.ar    1  LIG1       -0.0094
     17 C           7.4667   -0.2947   -0.5274 C.ar    1  LIG1        0.2276
     18 C           5.0234    2.5288   -0.9204 C.ar    1  LIG1       -0.0527
     19 C           5.0798    1.0511    0.9626 C.ar    1  LIG1       -0.0527
     20 C           7.0849   -2.4636    0.3101 C.3     1  LIG1        0.1252
     21 C           3.8059    3.0582   -0.4745 C.ar    1  LIG1       -0.0472
     22 C           3.8391    1.5441    1.3925 C.ar    1  LIG1       -0.0472
     23 C           9.4809    0.0784   -1.5193 C.ar    1  LIG1        0.1219
     24 C           7.1448   -3.3889   -0.9166 C.3     1  LIG1        0.1267
     25 C           3.2132    2.5553    0.6746 C.ar    1  LIG1        0.0179
     26 C           7.0500   -5.4620    0.2258 C.ar    1  LIG1        0.3180
     27 C           7.0997   -7.3558    1.4912 C.ar    1  LIG1        0.0483
     28 C           5.6763   -5.6101    2.0522 C.ar    1  LIG1        0.0483
     29 C           6.1572   -6.8527    2.3627 C.ar    1  LIG1        0.0543
     30 H           7.2051    3.1847    1.4336 H       1  LIG1        0.1456
     31 H           8.7727    3.3683    2.0165 H       1  LIG1        0.1456
     32 H           8.3206    3.5160   -2.2302 H       1  LIG1        0.1763
     33 H           5.4344    2.9368   -1.8405 H       1  LIG1        0.0624
     34 H           5.5457    0.2821    1.5763 H       1  LIG1        0.0624
     35 H           6.3667   -2.8089    1.0520 H       1  LIG1        0.0731
     36 H           8.0358   -2.4122    0.8566 H       1  LIG1        0.0731
     37 H           3.3374    3.8611   -1.0394 H       1  LIG1        0.0629
     38 H           3.3791    1.1336    2.2878 H       1  LIG1        0.0629
     39 H          10.4463   -0.2972   -1.8427 H       1  LIG1        0.1049
     40 H           6.1680   -3.4593   -1.4116 H       1  LIG1        0.0732
     41 H           7.7943   -2.9285   -1.6696 H       1  LIG1        0.0732
     42 H           7.5296   -8.3375    1.6283 H       1  LIG1        0.0843
     43 H           4.9615   -5.0887    2.6817 H       1  LIG1        0.0843
@<TRIPOS>BOND
     1     1    25    1
     2     2    29    1
     3     3     9    1
     4     3     8    1
     5     3     6    2
     6     3     5    2
     7     4    17    1
     8     4    20    1
     9     7    24    1
    10     7    26    1
    11     9    15    1
    12    10    15   ar
    13    10    23   ar
    14    11    17   ar
    15    11    23   ar
    16    12    26   ar
    17    12    27   ar
    18    13    26   ar
    19    13    28   ar
    20    14    15   ar
    21    14    17   ar
    22    16    18   ar
    23    16    19   ar
    24    16    14    1
    25    18    21   ar
    26    19    22   ar
    27    20    24    1
    28    21    25   ar
    29    22    25   ar
    30    27    29   ar
    31    28    29   ar
    32     8    30    1
    33     8    31    1
    34     9    32    1
    35    18    33    1
    36    19    34    1
    37    20    35    1
    38    20    36    1
    39    21    37    1
    40    22    38    1
    41    23    39    1
    42    24    40    1
    43    24    41    1
    44    27    42    1
    45    28    43    1
@<TRIPOS>MOLECULE
*****
 43 45 0 0 0
SMALL
GASTEIGER

@<TRIPOS>ATOM
      1 BR          1.6826    3.2108    1.3254 Br      1  LIG1       -0.0503
      2 BR          5.3227   -8.3196    3.5810 Br      1  LIG1       -0.0472
      3 S           8.5088    4.1415   -0.0829 S.O2    1  LIG1        0.1079
      4 O           6.5938   -1.1363   -0.1420 O.3     1  LIG1       -0.4724
      5 O           8.1616    5.5301   -0.2400 O.2     1  LIG1       -0.1383
      6 O           8.2669    3.4026    1.1292 O.2     1  LIG1       -0.1383
      7 O           7.6897   -4.6527   -0.4634 O.3     1  LIG1       -0.4590
      8 N          10.1527    4.0452   -0.3516 N.3     1  LIG1       -0.1906
      9 N           7.9842    3.3031   -1.4250 N.pl3   1  LIG1       -0.1891
     10 N           9.2564    1.4590   -1.8586 N.ar    1  LIG1       -0.2186
     11 N           8.6342   -0.7382   -1.2069 N.ar    1  LIG1       -0.2008
     12 N           7.7506   -6.6210    0.6974 N.ar    1  LIG1       -0.2022
     13 N           5.9433   -5.1053    1.0524 N.ar    1  LIG1       -0.2022
     14 C           7.1182    1.0989   -0.7434 C.ar    1  LIG1        0.0848
     15 C           8.0884    1.8912   -1.3479 C.ar    1  LIG1        0.1532
     16 C           5.8268    1.6120   -0.2434 C.ar    1  LIG1       -0.0094
     17 C           7.4888   -0.2399   -0.6931 C.ar    1  LIG1        0.2276
     18 C           4.9883    2.3898   -1.0624 C.ar    1  LIG1       -0.0527
     19 C           5.3875    1.3368    1.0643 C.ar    1  LIG1       -0.0527
     20 C           7.1730   -2.3741    0.2824 C.3     1  LIG1        0.1252
     21 C           3.7599    2.8716   -0.5970 C.ar    1  LIG1       -0.0472
     22 C           4.1551    1.8070    1.5322 C.ar    1  LIG1       -0.0472
     23 C           9.4618    0.1433   -1.7702 C.ar    1  LIG1        0.1219
     24 C           6.9649   -3.4623   -0.7707 C.3     1  LIG1        0.1267
     25 C           3.3477    2.5734    0.6985 C.ar    1  LIG1        0.0179
     26 C           7.0857   -5.4816    0.4523 C.ar    1  LIG1        0.3180
     27 C           7.2061   -7.4422    1.6203 C.ar    1  LIG1        0.0483
     28 C           5.4448   -5.9640    1.9695 C.ar    1  LIG1        0.0483
     29 C           6.0428   -7.1584    2.2957 C.ar    1  LIG1        0.0543
     30 H          10.4723    3.0894   -0.1859 H       1  LIG1        0.1456
     31 H          10.6276    4.7003    0.2698 H       1  LIG1        0.1456
     32 H           8.4432    3.6828   -2.2478 H       1  LIG1        0.1763
     33 H           5.2820    2.6315   -2.0820 H       1  LIG1        0.0624
     34 H           6.0076    0.7506    1.7402 H       1  LIG1        0.0624
     35 H           6.6553   -2.6497    1.2071 H       1  LIG1        0.0731
     36 H           8.2270   -2.2840    0.5748 H       1  LIG1        0.0731
     37 H           3.1370    3.4759   -1.2528 H       1  LIG1        0.0629
     38 H           3.8425    1.5720    2.5449 H       1  LIG1        0.0629
     39 H          10.3849   -0.2443   -2.1873 H       1  LIG1        0.1049
     40 H           5.8994   -3.6572   -0.9519 H       1  LIG1        0.0732
     41 H           7.3478   -3.1090   -1.7350 H       1  LIG1        0.0732
     42 H           7.7609   -8.3587    1.7984 H       1  LIG1        0.0843
     43 H           4.5235   -5.6401    2.4449 H       1  LIG1        0.0843
@<TRIPOS>BOND
     1     1    25    1
     2     2    29    1
     3     3     9    1
     4     3     8    1
     5     3     6    2
     6     3     5    2
     7     4    17    1
     8     4    20    1
     9     7    24    1
    10     7    26    1
    11     9    15    1
    12    10    15   ar
    13    10    23   ar
    14    11    17   ar
    15    11    23   ar
    16    12    26   ar
    17    12    27   ar
    18    13    26   ar
    19    13    28   ar
    20    14    15   ar
    21    14    17   ar
    22    16    18   ar
    23    16    19   ar
    24    16    14    1
    25    18    21   ar
    26    19    22   ar
    27    20    24    1
    28    21    25   ar
    29    22    25   ar
    30    27    29   ar
    31    28    29   ar
    32     8    30    1
    33     8    31    1
    34     9    32    1
    35    18    33    1
    36    19    34    1
    37    20    35    1
    38    20    36    1
    39    21    37    1
    40    22    38    1
    41    23    39    1
    42    24    40    1
    43    24    41    1
    44    27    42    1
    45    28    43    1
@<TRIPOS>MOLECULE
*****
 43 45 0 0 0
SMALL
GASTEIGER

@<TRIPOS>ATOM
      1 BR          1.6654    3.2371    1.2590 Br      1  LIG1       -0.0503
      2 BR          5.4355   -8.1603    3.7158 Br      1  LIG1       -0.0472
      3 S           8.4734    4.0746    0.0458 S.O2    1  LIG1        0.1079
      4 O           6.5189   -1.1897   -0.2019 O.3     1  LIG1       -0.4724
      5 O           8.1877    5.4745   -0.1321 O.2     1  LIG1       -0.1383
      6 O           8.1131    3.3445    1.2349 O.2     1  LIG1       -0.1383
      7 O           7.7074   -4.6772   -0.5387 O.3     1  LIG1       -0.4590
      8 N          10.1303    3.9231   -0.0878 N.3     1  LIG1       -0.1906
      9 N           8.0255    3.2568   -1.3341 N.pl3   1  LIG1       -0.1891
     10 N           9.2830    1.4023   -1.7535 N.ar    1  LIG1       -0.2186
     11 N           8.6068   -0.7971   -1.1714 N.ar    1  LIG1       -0.2008
     12 N           7.9570   -6.3820    0.9634 N.ar    1  LIG1       -0.2022
     13 N           5.8473   -5.2845    0.7707 N.ar    1  LIG1       -0.2022
     14 C           7.1031    1.0528   -0.7222 C.ar    1  LIG1        0.0848
     15 C           8.1058    1.8431   -1.2746 C.ar    1  LIG1        0.1532
     16 C           5.8062    1.5748   -0.2478 C.ar    1  LIG1       -0.0094
     17 C           7.4501   -0.2920   -0.6910 C.ar    1  LIG1        0.2276
     18 C           4.9969    2.3742   -1.0766 C.ar    1  LIG1       -0.0527
     19 C           5.3356    1.2932    1.0477 C.ar    1  LIG1       -0.0527
     20 C           7.0716   -2.4364    0.2299 C.3     1  LIG1        0.1252
     21 C           3.7691    2.8727   -0.6294 C.ar    1  LIG1       -0.0472
     22 C           4.1051    1.7827    1.4968 C.ar    1  LIG1       -0.0472
     23 C           9.4674    0.0827   -1.6858 C.ar    1  LIG1        0.1219
     24 C           6.9661   -3.5010   -0.8638 C.3     1  LIG1        0.1267
     25 C           3.3277    2.5715    0.6551 C.ar    1  LIG1        0.0179
     26 C           7.1330   -5.4698    0.4266 C.ar    1  LIG1        0.3180
     27 C           7.4306   -7.1632    1.9302 C.ar    1  LIG1        0.0483
     28 C           5.3716   -6.0969    1.7398 C.ar    1  LIG1        0.0483
     29 C           6.1294   -7.0613    2.3625 C.ar    1  LIG1        0.0543
     30 H          10.4039    2.9602    0.1129 H       1  LIG1        0.1456
     31 H          10.5732    4.5698    0.5665 H       1  LIG1        0.1456
     32 H           8.5418    3.6377   -2.1232 H       1  LIG1        0.1763
     33 H           5.3172    2.6205   -2.0875 H       1  LIG1        0.0624
     34 H           5.9347    0.6922    1.7300 H       1  LIG1        0.0624
     35 H           6.4803   -2.7449    1.0991 H       1  LIG1        0.0731
     36 H           8.0966   -2.3424    0.6136 H       1  LIG1        0.0731
     37 H           3.1703    3.4935   -1.2907 H       1  LIG1        0.0629
     38 H           3.7704    1.5463    2.5032 H       1  LIG1        0.0629
     39 H          10.3996   -0.3101   -2.0780 H       1  LIG1        0.1049
     40 H           5.9211   -3.7235   -1.1169 H       1  LIG1        0.0732
     41 H           7.3969   -3.1129   -1.7936 H       1  LIG1        0.0732
     42 H           8.1177   -7.8901    2.3534 H       1  LIG1        0.0843
     43 H           4.3305   -5.9335    2.0030 H       1  LIG1        0.0843
@<TRIPOS>BOND
     1     1    25    1
     2     2    29    1
     3     3     9    1
     4     3     8    1
     5     3     6    2
     6     3     5    2
     7     4    17    1
     8     4    20    1
     9     7    24    1
    10     7    26    1
    11     9    15    1
    12    10    15   ar
    13    10    23   ar
    14    11    17   ar
    15    11    23   ar
    16    12    26   ar
    17    12    27   ar
    18    13    26   ar
    19    13    28   ar
    20    14    15   ar
    21    14    17   ar
    22    16    18   ar
    23    16    19   ar
    24    16    14    1
    25    18    21   ar
    26    19    22   ar
    27    20    24    1
    28    21    25   ar
    29    22    25   ar
    30    27    29   ar
    31    28    29   ar
    32     8    30    1
    33     8    31    1
    34     9    32    1
    35    18    33    1
    36    19    34    1
    37    20    35    1
    38    20    36    1
    39    21    37    1
    40    22    38    1
    41    23    39    1
    42    24    40    1
    43    24    41    1
    44    27    42    1
    45    28    43    1
@<TRIPOS>MOLECULE
*****
 43 45 0 0 0
SMALL
GASTEIGER

@<TRIPOS>ATOM
      1 BR          1.6225    3.1198    1.6614 Br      1  LIG1       -0.0503
      2 BR         12.2130    1.4623    3.0568 Br      1  LIG1       -0.0472
      3 S           8.3291    3.9020   -0.0590 S.O2    1  LIG1        0.1079
      4 O           6.3744   -1.2987   -0.6960 O.3     1  LIG1       -0.4724
      5 O           8.0469    5.3089    0.0401 O.2     1  LIG1       -0.1383
      6 O           8.1530    2.9846    1.0396 O.2     1  LIG1       -0.1383
      7 O           9.2751   -2.5525   -0.1967 O.3     1  LIG1       -0.4590
      8 N           9.9408    3.7846   -0.4796 N.3     1  LIG1       -0.1906
      9 N           7.6537    3.3136   -1.4638 N.pl3   1  LIG1       -0.1891
     10 N           8.8030    1.5456   -2.3294 N.ar    1  LIG1       -0.2186
     11 N           8.1611   -0.7085   -1.9800 N.ar    1  LIG1       -0.2008
     12 N          10.9393   -0.9910   -0.0126 N.ar    1  LIG1       -0.2022
     13 N           9.6553   -1.5836    1.9125 N.ar    1  LIG1       -0.2022
     14 C           6.7844    1.0479   -1.0490 C.ar    1  LIG1        0.0848
     15 C           7.7123    1.9074   -1.6314 C.ar    1  LIG1        0.1532
     16 C           5.5526    1.5191   -0.3869 C.ar    1  LIG1       -0.0094
     17 C           7.1285   -0.2828   -1.2302 C.ar    1  LIG1        0.2276
     18 C           4.6395    2.3310   -1.0884 C.ar    1  LIG1       -0.0527
     19 C           5.2504    1.2116    0.9494 C.ar    1  LIG1       -0.0527
     20 C           6.9836   -1.7940    0.5106 C.3     1  LIG1        0.1252
     21 C           3.4744    2.8123   -0.4822 C.ar    1  LIG1       -0.0472
     22 C           4.0785    1.6769    1.5569 C.ar    1  LIG1       -0.0472
     23 C           8.9597    0.2298   -2.4866 C.ar    1  LIG1        0.1219
     24 C           7.9904   -2.9402    0.2999 C.3     1  LIG1        0.1267
     25 C           3.1968    2.4770    0.8380 C.ar    1  LIG1        0.0179
     26 C           9.9831   -1.6976    0.6132 C.ar    1  LIG1        0.3180
     27 C          11.5914   -0.0793    0.7369 C.ar    1  LIG1        0.0483
     28 C          10.3359   -0.6484    2.6118 C.ar    1  LIG1        0.0483
     29 C          11.3169    0.1461    2.0647 C.ar    1  LIG1        0.0543
     30 H          10.2115    2.8019   -0.5295 H       1  LIG1        0.1456
     31 H          10.4993    4.2947    0.2056 H       1  LIG1        0.1456
     32 H           8.0516    3.8122   -2.2564 H       1  LIG1        0.1763
     33 H           4.8340    2.6079   -2.1234 H       1  LIG1        0.0624
     34 H           5.9382    0.6274    1.5532 H       1  LIG1        0.0624
     35 H           6.1529   -2.1942    1.1040 H       1  LIG1        0.0731
     36 H           7.4066   -0.9707    1.0936 H       1  LIG1        0.0731
     37 H           2.7993    3.4481   -1.0486 H       1  LIG1        0.0629
     38 H           3.8742    1.4193    2.5928 H       1  LIG1        0.0629
     39 H           9.8154   -0.1101   -3.0598 H       1  LIG1        0.1049
     40 H           8.1232   -3.5085    1.2291 H       1  LIG1        0.0732
     41 H           7.5781   -3.6363   -0.4394 H       1  LIG1        0.0732
     42 H          12.3565    0.4815    0.2085 H       1  LIG1        0.0843
     43 H          10.0460   -0.5552    3.6545 H       1  LIG1        0.0843
@<TRIPOS>BOND
     1     1    25    1
     2     2    29    1
     3     3     9    1
     4     3     8    1
     5     3     6    2
     6     3     5    2
     7     4    17    1
     8     4    20    1
     9     7    24    1
    10     7    26    1
    11     9    15    1
    12    10    15   ar
    13    10    23   ar
    14    11    17   ar
    15    11    23   ar
    16    12    26   ar
    17    12    27   ar
    18    13    26   ar
    19    13    28   ar
    20    14    15   ar
    21    14    17   ar
    22    16    18   ar
    23    16    19   ar
    24    16    14    1
    25    18    21   ar
    26    19    22   ar
    27    20    24    1
    28    21    25   ar
    29    22    25   ar
    30    27    29   ar
    31    28    29   ar
    32     8    30    1
    33     8    31    1
    34     9    32    1
    35    18    33    1
    36    19    34    1
    37    20    35    1
    38    20    36    1
    39    21    37    1
    40    22    38    1
    41    23    39    1
    42    24    40    1
    43    24    41    1
    44    27    42    1
    45    28    43    1
@<TRIPOS>MOLECULE
*****
 43 45 0 0 0
SMALL
GASTEIGER

@<TRIPOS>ATOM
      1 BR          1.6352    3.0398    1.7196 Br      1  LIG1       -0.0503
      2 BR         11.7852    1.7833    3.0523 Br      1  LIG1       -0.0472
      3 S           8.6024    3.7859   -0.0795 S.O2    1  LIG1        0.1079
      4 O           6.3947   -1.3941   -0.6570 O.3     1  LIG1       -0.4724
      5 O           9.9008    3.1659   -0.0164 O.2     1  LIG1       -0.1383
      6 O           8.4438    5.2178   -0.0343 O.2     1  LIG1       -0.1383
      7 O           9.3776   -2.5507   -0.2196 O.3     1  LIG1       -0.4590
      8 N           7.7229    3.2052    1.2066 N.3     1  LIG1       -0.1906
      9 N           7.7205    3.2283   -1.3852 N.pl3   1  LIG1       -0.1891
     10 N           8.7564    1.4600   -2.3651 N.ar    1  LIG1       -0.2186
     11 N           8.1144   -0.7957   -2.0190 N.ar    1  LIG1       -0.2008
     12 N          10.7822   -0.7534   -0.0543 N.ar    1  LIG1       -0.2022
     13 N           9.7459   -1.6318    1.9113 N.ar    1  LIG1       -0.2022
     14 C           6.8079    0.9592   -0.9811 C.ar    1  LIG1        0.0848
     15 C           7.7353    1.8171   -1.5721 C.ar    1  LIG1        0.1532
     16 C           5.5757    1.4321   -0.3139 C.ar    1  LIG1       -0.0094
     17 C           7.1288   -0.3722   -1.2078 C.ar    1  LIG1        0.2276
     18 C           4.7229    2.3416   -0.9731 C.ar    1  LIG1       -0.0527
     19 C           5.1981    1.0217    0.9755 C.ar    1  LIG1       -0.0527
     20 C           7.0521   -1.9087    0.5166 C.3     1  LIG1        0.1252
     21 C           3.5561    2.8252   -0.3728 C.ar    1  LIG1       -0.0472
     22 C           4.0245    1.4918    1.5782 C.ar    1  LIG1       -0.0472
     23 C           8.8965    0.1460   -2.5476 C.ar    1  LIG1        0.1219
     24 C           8.1065   -3.0028    0.2572 C.3     1  LIG1        0.1267
     25 C           3.2104    2.3938    0.9016 C.ar    1  LIG1        0.0179
     26 C          10.0043   -1.6356    0.5909 C.ar    1  LIG1        0.3180
     27 C          11.2925    0.2494    0.6910 C.ar    1  LIG1        0.0483
     28 C          10.3078   -0.6211    2.6118 C.ar    1  LIG1        0.0483
     29 C          11.0818    0.3656    2.0441 C.ar    1  LIG1        0.0543
     30 H           6.8412    3.7174    1.2668 H       1  LIG1        0.1456
     31 H           8.2678    3.3351    2.0604 H       1  LIG1        0.1456
     32 H           8.1571    3.6342   -2.2143 H       1  LIG1        0.1763
     33 H           4.9638    2.6894   -1.9775 H       1  LIG1        0.0624
     34 H           5.8219    0.3424    1.5470 H       1  LIG1        0.0624
     35 H           6.2505   -2.3665    1.1083 H       1  LIG1        0.0731
     36 H           7.4449   -1.0871    1.1232 H       1  LIG1        0.0731
     37 H           2.9298    3.5318   -0.9116 H       1  LIG1        0.0629
     38 H           3.7601    1.1482    2.5750 H       1  LIG1        0.0629
     39 H           9.7224   -0.1885   -3.1654 H       1  LIG1        0.1049
     40 H           8.2640   -3.5991    1.1648 H       1  LIG1        0.0732
     41 H           7.7210   -3.6863   -0.5077 H       1  LIG1        0.0732
     42 H          11.8749    0.9813    0.1382 H       1  LIG1        0.0843
     43 H          10.0913   -0.6278    3.6760 H       1  LIG1        0.0843
@<TRIPOS>BOND
     1     1    25    1
     2     2    29    1
     3     3     9    1
     4     3     8    1
     5     3     6    2
     6     3     5    2
     7     4    17    1
     8     4    20    1
     9     7    24    1
    10     7    26    1
    11     9    15    1
    12    10    15   ar
    13    10    23   ar
    14    11    17   ar
    15    11    23   ar
    16    12    26   ar
    17    12    27   ar
    18    13    26   ar
    19    13    28   ar
    20    14    15   ar
    21    14    17   ar
    22    16    18   ar
    23    16    19   ar
    24    16    14    1
    25    18    21   ar
    26    19    22   ar
    27    20    24    1
    28    21    25   ar
    29    22    25   ar
    30    27    29   ar
    31    28    29   ar
    32     8    30    1
    33     8    31    1
    34     9    32    1
    35    18    33    1
    36    19    34    1
    37    20    35    1
    38    20    36    1
    39    21    37    1
    40    22    38    1
    41    23    39    1
    42    24    40    1
    43    24    41    1
    44    27    42    1
    45    28    43    1
@<TRIPOS>MOLECULE
*****
 43 45 0 0 0
SMALL
GASTEIGER

@<TRIPOS>ATOM
      1 BR          1.6083    3.0786    1.5864 Br      1  LIG1       -0.0503
      2 BR          6.1446    1.4802    6.1732 Br      1  LIG1       -0.0472
      3 S           7.7034    3.7575   -3.2118 S.O2    1  LIG1        0.1079
      4 O           6.7005   -1.2106    0.2447 O.3     1  LIG1       -0.4724
      5 O           6.7660    4.8460   -3.3260 O.2     1  LIG1       -0.1383
      6 O           9.1015    3.9350   -3.5078 O.2     1  LIG1       -0.1383
      7 O           9.1354   -1.0918    1.7349 O.3     1  LIG1       -0.4590
      8 N           7.1617    2.5399   -4.2158 N.3     1  LIG1       -0.1906
      9 N           7.5340    3.0817   -1.7068 N.pl3   1  LIG1       -0.1891
     10 N           8.9600    1.2810   -2.0590 N.ar    1  LIG1       -0.2186
     11 N           8.5262   -0.8741   -1.1659 N.ar    1  LIG1       -0.2008
     12 N           8.5916    0.7721    2.9238 N.ar    1  LIG1       -0.2022
     13 N           7.6758   -1.3415    3.5597 N.ar    1  LIG1       -0.2022
     14 C           6.9303    0.9185   -0.7687 C.ar    1  LIG1        0.0848
     15 C           7.7853    1.6916   -1.5504 C.ar    1  LIG1        0.1532
     16 C           5.6528    1.4250   -0.2013 C.ar    1  LIG1       -0.0094
     17 C           7.4056   -0.3794   -0.5991 C.ar    1  LIG1        0.2276
     18 C           4.7499    2.1715   -0.9847 C.ar    1  LIG1       -0.0527
     19 C           5.2822    1.1840    1.1340 C.ar    1  LIG1       -0.0527
     20 C           7.3212   -2.4411    0.6162 C.3     1  LIG1        0.1252
     21 C           3.5545    2.6730   -0.4559 C.ar    1  LIG1       -0.0472
     22 C           4.0807    1.6657    1.6668 C.ar    1  LIG1       -0.0472
     23 C           9.2653   -0.0004   -1.8492 C.ar    1  LIG1        0.1219
     24 C           8.7000   -2.3774    1.3066 C.3     1  LIG1        0.1267
     25 C           3.2247    2.4149    0.8688 C.ar    1  LIG1        0.0179
     26 C           8.4395   -0.5551    2.7841 C.ar    1  LIG1        0.3180
     27 C           7.9097    1.3469    3.9349 C.ar    1  LIG1        0.0483
     28 C           7.0206   -0.7126    4.5611 C.ar    1  LIG1        0.0483
     29 C           7.0986    0.6428    4.7924 C.ar    1  LIG1        0.0543
     30 H           7.9089    1.8431   -4.2778 H       1  LIG1        0.1456
     31 H           6.9756    2.9367   -5.1370 H       1  LIG1        0.1456
     32 H           8.0708    3.6277   -1.0355 H       1  LIG1        0.1763
     33 H           4.9675    2.3818   -2.0313 H       1  LIG1        0.0624
     34 H           5.9294    0.6042    1.7846 H       1  LIG1        0.0624
     35 H           7.3498   -3.1213   -0.2450 H       1  LIG1        0.0731
     36 H           6.6252   -2.9130    1.3208 H       1  LIG1        0.0731
     37 H           2.8962    3.2607   -1.0906 H       1  LIG1        0.0629
     38 H           3.8275    1.4476    2.7006 H       1  LIG1        0.0629
     39 H          10.1996   -0.3616   -2.2653 H       1  LIG1        0.1049
     40 H           8.7687   -3.1153    2.1169 H       1  LIG1        0.0732
     41 H           9.4477   -2.7140    0.5773 H       1  LIG1        0.0732
     42 H           8.0392    2.4219    4.0196 H       1  LIG1        0.0843
     43 H           6.4097   -1.3596    5.1838 H       1  LIG1        0.0843
@<TRIPOS>BOND
     1     1    25    1
     2     2    29    1
     3     3     9    1
     4     3     8    1
     5     3     6    2
     6     3     5    2
     7     4    17    1
     8     4    20    1
     9     7    24    1
    10     7    26    1
    11     9    15    1
    12    10    15   ar
    13    10    23   ar
    14    11    17   ar
    15    11    23   ar
    16    12    26   ar
    17    12    27   ar
    18    13    26   ar
    19    13    28   ar
    20    14    15   ar
    21    14    17   ar
    22    16    18   ar
    23    16    19   ar
    24    16    14    1
    25    18    21   ar
    26    19    22   ar
    27    20    24    1
    28    21    25   ar
    29    22    25   ar
    30    27    29   ar
    31    28    29   ar
    32     8    30    1
    33     8    31    1
    34     9    32    1
    35    18    33    1
    36    19    34    1
    37    20    35    1
    38    20    36    1
    39    21    37    1
    40    22    38    1
    41    23    39    1
    42    24    40    1
    43    24    41    1
    44    27    42    1
    45    28    43    1
@<TRIPOS>MOLECULE
*****
 43 45 0 0 0
SMALL
GASTEIGER

@<TRIPOS>ATOM
      1 BR          1.6888    3.1883    1.5012 Br      1  LIG1       -0.0503
      2 BR          6.0760    1.0409    6.4455 Br      1  LIG1       -0.0472
      3 S           8.6555    3.9805   -0.4172 S.O2    1  LIG1        0.1079
      4 O           6.6944   -1.1796    0.1009 O.3     1  LIG1       -0.4724
      5 O          10.0099    3.5078   -0.3103 O.2     1  LIG1       -0.1383
      6 O           8.3538    5.3831   -0.5641 O.2     1  LIG1       -0.1383
      7 O           9.0446   -0.9456    1.7005 O.3     1  LIG1       -0.4590
      8 N           7.8521    3.4916    0.9469 N.3     1  LIG1       -0.1906
      9 N           7.8310    3.1704   -1.6297 N.pl3   1  LIG1       -0.1891
     10 N           8.9660    1.2873   -2.2301 N.ar    1  LIG1       -0.2186
     11 N           8.4704   -0.8746   -1.3767 N.ar    1  LIG1       -0.2008
     12 N           8.5418    0.7405    3.1482 N.ar    1  LIG1       -0.2022
     13 N           7.5774   -1.4204    3.4754 N.ar    1  LIG1       -0.2022
     14 C           7.0100    0.9858   -0.8061 C.ar    1  LIG1        0.0848
     15 C           7.9040    1.7498   -1.5494 C.ar    1  LIG1        0.1532
     16 C           5.7458    1.5145   -0.2339 C.ar    1  LIG1       -0.0094
     17 C           7.4162   -0.3421   -0.7217 C.ar    1  LIG1        0.2276
     18 C           4.8979    2.3373   -1.0029 C.ar    1  LIG1       -0.0527
     19 C           5.3250    1.2147    1.0744 C.ar    1  LIG1       -0.0527
     20 C           7.3464   -2.3789    0.5239 C.3     1  LIG1        0.1252
     21 C           3.6977    2.8421   -0.4897 C.ar    1  LIG1       -0.0472
     22 C           4.1209    1.7062    1.5923 C.ar    1  LIG1       -0.0472
     23 C           9.1962   -0.0203   -2.1022 C.ar    1  LIG1        0.1219
     24 C           8.7239   -2.2417    1.2047 C.3     1  LIG1        0.1267
     25 C           3.3136    2.5203    0.8065 C.ar    1  LIG1        0.0179
     26 C           8.3656   -0.5509    2.8217 C.ar    1  LIG1        0.3180
     27 C           7.8622    1.1807    4.2258 C.ar    1  LIG1        0.0483
     28 C           6.9216   -0.9239    4.5478 C.ar    1  LIG1        0.0483
     29 C           7.0249    0.3823    4.9678 C.ar    1  LIG1        0.0543
     30 H           7.0585    4.1032    1.1294 H       1  LIG1        0.1456
     31 H           8.5010    3.4199    1.7305 H       1  LIG1        0.1456
     32 H           8.2797    3.4439   -2.5033 H       1  LIG1        0.1763
     33 H           5.1636    2.5960   -2.0270 H       1  LIG1        0.0624
     34 H           5.9377    0.5869    1.7148 H       1  LIG1        0.0624
     35 H           7.3958   -3.0922   -0.3089 H       1  LIG1        0.0731
     36 H           6.6624   -2.8378    1.2480 H       1  LIG1        0.0731
     37 H           3.0748    3.4774   -1.1140 H       1  LIG1        0.0629
     38 H           3.8262    1.4420    2.6041 H       1  LIG1        0.0629
     39 H          10.0563   -0.4235   -2.6254 H       1  LIG1        0.1049
     40 H           8.8609   -3.0138    1.9738 H       1  LIG1        0.0732
     41 H           9.4925   -2.4706    0.4562 H       1  LIG1        0.0732
     42 H           8.0188    2.2272    4.4680 H       1  LIG1        0.0843
     43 H           6.2890   -1.6378    5.0672 H       1  LIG1        0.0843
@<TRIPOS>BOND
     1     1    25    1
     2     2    29    1
     3     3     9    1
     4     3     8    1
     5     3     6    2
     6     3     5    2
     7     4    17    1
     8     4    20    1
     9     7    24    1
    10     7    26    1
    11     9    15    1
    12    10    15   ar
    13    10    23   ar
    14    11    17   ar
    15    11    23   ar
    16    12    26   ar
    17    12    27   ar
    18    13    26   ar
    19    13    28   ar
    20    14    15   ar
    21    14    17   ar
    22    16    18   ar
    23    16    19   ar
    24    16    14    1
    25    18    21   ar
    26    19    22   ar
    27    20    24    1
    28    21    25   ar
    29    22    25   ar
    30    27    29   ar
    31    28    29   ar
    32     8    30    1
    33     8    31    1
    34     9    32    1
    35    18    33    1
    36    19    34    1
    37    20    35    1
    38    20    36    1
    39    21    37    1
    40    22    38    1
    41    23    39    1
    42    24    40    1
    43    24    41    1
    44    27    42    1
    45    28    43    1
@<TRIPOS>MOLECULE
*****
 43 45 0 0 0
SMALL
GASTEIGER

@<TRIPOS>ATOM
      1 BR          1.8297    3.0031    0.9085 Br      1  LIG1       -0.0503
      2 BR         12.0572    1.0683   -0.0615 Br      1  LIG1       -0.0472
      3 S           8.5549    3.9716   -0.1502 S.O2    1  LIG1        0.1079
      4 O           6.5713   -1.2439   -0.3624 O.3     1  LIG1       -0.4724
      5 O           9.9916    4.6459   -0.7934 O.2     1  LIG1       -0.1383
      6 O           7.7089    5.1084   -0.5169 O.2     1  LIG1       -0.1383
      7 O           8.1525   -3.3062   -1.0805 O.3     1  LIG1       -0.4590
      8 N           8.2040    2.8620    1.0491 N.3     1  LIG1       -0.1906
      9 N           7.9516    3.0861   -1.4338 N.pl3   1  LIG1       -0.1891
     10 N           9.2067    1.2165   -2.3031 N.ar    1  LIG1       -0.2186
     11 N           8.0186   -0.3003   -1.4212 N.ar    1  LIG1       -0.2008
     12 N           9.7064   -2.4005    0.3609 N.ar    1  LIG1       -0.2022
     13 N          10.4946   -2.5476   -1.8861 N.ar    1  LIG1       -0.2022
     14 C           6.4573    0.9433   -1.1679 C.ar    1  LIG1        0.0848
     15 C           8.0399    1.6815   -1.2301 C.ar    1  LIG1        0.1532
     16 C           5.7454    1.5034   -0.4061 C.ar    1  LIG1       -0.0094
     17 C           7.4486   -0.3831   -0.3929 C.ar    1  LIG1        0.2276
     18 C           5.1187    2.5509   -0.8478 C.ar    1  LIG1       -0.0527
     19 C           5.0663    1.0038    0.9849 C.ar    1  LIG1       -0.0527
     20 C           6.5653   -2.3368    0.9492 C.3     1  LIG1        0.1252
     21 C           3.8853    3.0775   -0.4392 C.ar    1  LIG1       -0.0472
     22 C           3.8210    1.5059    1.3835 C.ar    1  LIG1       -0.0472
     23 C           8.8389    0.5277   -1.4676 C.ar    1  LIG1        0.1219
     24 C           7.3320   -3.5719   -0.4416 C.3     1  LIG1        0.1267
     25 C           3.2390    2.5562    0.2063 C.ar    1  LIG1        0.0179
     26 C           9.7040   -2.3358   -0.8694 C.ar    1  LIG1        0.3180
     27 C           9.9937   -0.8048    1.1755 C.ar    1  LIG1        0.0483
     28 C          11.3902   -1.5801   -1.6024 C.ar    1  LIG1        0.0483
     29 C          11.4486   -0.3283    0.2100 C.ar    1  LIG1        0.0543
     30 H           7.6674    3.3606    1.5925 H       1  LIG1        0.1456
     31 H           9.1879    3.7874    2.0680 H       1  LIG1        0.1456
     32 H           7.6171    3.4947   -2.2464 H       1  LIG1        0.1763
     33 H           5.5794    2.9411   -1.6850 H       1  LIG1        0.0624
     34 H           5.4999    0.2456    1.5349 H       1  LIG1        0.0624
     35 H           6.5398   -2.9078    1.7796 H       1  LIG1        0.0731
     36 H           7.5360   -2.3351    1.2788 H       1  LIG1        0.0731
     37 H           3.4580    3.8583   -0.9617 H       1  LIG1        0.0629
     38 H           3.3382    1.1048    2.2028 H       1  LIG1        0.0629
     39 H          10.2960    0.1747   -2.4296 H       1  LIG1        0.1049
     40 H           7.7827   -4.3537    0.6338 H       1  LIG1        0.0732
     41 H           6.3627   -3.8582   -0.2927 H       1  LIG1        0.0732
     42 H          10.0324   -0.3793    1.5148 H       1  LIG1        0.0843
     43 H          11.3759   -1.2145   -2.3755 H       1  LIG1        0.0843
@<TRIPOS>BOND
     1     1    25    1
     2     2    29    1
     3     3     9    1
     4     3     8    1
     5     3     6    2
     6     3     5    2
     7     4    17    1
     8     4    20    1
     9     7    24    1
    10     7    26    1
    11     9    15    1
    12    10    15   ar
    13    10    23   ar
    14    11    17   ar
    15    11    23   ar
    16    12    26   ar
    17    12    27   ar
    18    13    26   ar
    19    13    28   ar
    20    14    15   ar
    21    14    17   ar
    22    16    18   ar
    23    16    19   ar
    24    16    14    1
    25    18    21   ar
    26    19    22   ar
    27    20    24    1
    28    21    25   ar
    29    22    25   ar
    30    27    29   ar
    31    28    29   ar
    32     8    30    1
    33     8    31    1
    34     9    32    1
    35    18    33    1
    36    19    34    1
    37    20    35    1
    38    20    36    1
    39    21    37    1
    40    22    38    1
    41    23    39    1
    42    24    40    1
    43    24    41    1
    44    27    42    1
    45    28    43    1
@<TRIPOS>MOLECULE
*****
 43 45 0 0 0
SMALL
GASTEIGER

@<TRIPOS>ATOM
      1 BR          1.4164    3.1833    0.9040 Br      1  LIG1       -0.0503
      2 BR         11.5920   -1.8257   -4.6890 Br      1  LIG1       -0.0472
      3 S           8.5265    4.1829    0.3154 S.O2    1  LIG1        0.1079
      4 O           6.5297   -1.2210    0.4440 O.3     1  LIG1       -0.4724
      5 O           9.8666    3.8548    0.7316 O.2     1  LIG1       -0.1383
      6 O           8.1589    5.5274   -0.0516 O.2     1  LIG1       -0.1383
      7 O           6.1223   -1.8377   -2.3732 O.3     1  LIG1       -0.4590
      8 N           7.5069    3.7616    1.5583 N.3     1  LIG1       -0.1906
      9 N           8.0125    3.1782   -0.9158 N.pl3   1  LIG1       -0.1891
     10 N           9.3915    1.3603   -0.9417 N.ar    1  LIG1       -0.2186
     11 N           8.7429   -0.7850   -0.1608 N.ar    1  LIG1       -0.2008
     12 N           8.1211   -3.0139   -2.7771 N.ar    1  LIG1       -0.2022
     13 N           7.7193   -0.8260   -3.6505 N.ar    1  LIG1       -0.2022
     14 C           7.1058    1.0037   -0.1719 C.ar    1  LIG1        0.0848
     15 C           8.1480    1.7845   -0.6630 C.ar    1  LIG1        0.1532
     16 C           5.7373    1.5026    0.0714 C.ar    1  LIG1       -0.0094
     17 C           7.4884   -0.3181    0.0173 C.ar    1  LIG1        0.2276
     18 C           5.0276    2.2092   -0.9167 C.ar    1  LIG1       -0.0527
     19 C           5.1025    1.3029    1.3118 C.ar    1  LIG1       -0.0527
     20 C           6.7092   -2.5526   -0.0577 C.3     1  LIG1        0.1252
     21 C           3.7450    2.7116   -0.6712 C.ar    1  LIG1       -0.0472
     22 C           3.8173    1.7957    1.5599 C.ar    1  LIG1       -0.0472
     23 C           9.6344    0.0871   -0.6351 C.ar    1  LIG1        0.1219
     24 C           5.8848   -2.7862   -1.3320 C.3     1  LIG1        0.1267
     25 C           3.1464    2.5022    0.5671 C.ar    1  LIG1        0.0179
     26 C           7.3599   -1.9216   -2.9623 C.ar    1  LIG1        0.3180
     27 C           9.3632   -2.9592   -3.3053 C.ar    1  LIG1        0.0483
     28 C           8.9677   -0.8304   -4.1613 C.ar    1  LIG1        0.0483
     29 C           9.8450   -1.8779   -4.0070 C.ar    1  LIG1        0.0543
     30 H           6.5780    4.1425    1.3769 H       1  LIG1        0.1456
     31 H           7.8847    4.1220    2.4347 H       1  LIG1        0.1456
     32 H           8.5985    3.3962   -1.7207 H       1  LIG1        0.1763
     33 H           5.4712    2.3770   -1.8973 H       1  LIG1        0.0624
     34 H           5.6149    0.7620    2.1063 H       1  LIG1        0.0624
     35 H           6.3272   -3.2267    0.7183 H       1  LIG1        0.0731
     36 H           7.7583   -2.8339   -0.1903 H       1  LIG1        0.0731
     37 H           3.2267    3.2601   -1.4536 H       1  LIG1        0.0629
     38 H           3.3556    1.6226    2.5284 H       1  LIG1        0.0629
     39 H          10.6441   -0.2755   -0.7923 H       1  LIG1        0.1049
     40 H           5.9986   -3.8138   -1.6997 H       1  LIG1        0.0732
     41 H           4.8255   -2.6700   -1.0738 H       1  LIG1        0.0732
     42 H           9.9745   -3.8391   -3.1269 H       1  LIG1        0.0843
     43 H           9.2436    0.0713   -4.7001 H       1  LIG1        0.0843
@<TRIPOS>BOND
     1     1    25    1
     2     2    29    1
     3     3     9    1
     4     3     8    1
     5     3     6    2
     6     3     5    2
     7     4    17    1
     8     4    20    1
     9     7    24    1
    10     7    26    1
    11     9    15    1
    12    10    15   ar
    13    10    23   ar
    14    11    17   ar
    15    11    23   ar
    16    12    26   ar
    17    12    27   ar
    18    13    26   ar
    19    13    28   ar
    20    14    15   ar
    21    14    17   ar
    22    16    18   ar
    23    16    19   ar
    24    16    14    1
    25    18    21   ar
    26    19    22   ar
    27    20    24    1
    28    21    25   ar
    29    22    25   ar
    30    27    29   ar
    31    28    29   ar
    32     8    30    1
    33     8    31    1
    34     9    32    1
    35    18    33    1
    36    19    34    1
    37    20    35    1
    38    20    36    1
    39    21    37    1
    40    22    38    1
    41    23    39    1
    42    24    40    1
    43    24    41    1
    44    27    42    1
    45    28    43    1
@<TRIPOS>MOLECULE
*****
 43 45 0 0 0
SMALL
GASTEIGER

@<TRIPOS>ATOM
      1 BR          1.5125    3.0375    1.3695 Br      1  LIG1       -0.0503
      2 BR         13.5775   -6.1416   -2.3519 Br      1  LIG1       -0.0472
      3 S           8.6332    3.9856    0.1780 S.O2    1  LIG1        0.1079
      4 O           6.5412   -1.3170   -0.4274 O.3     1  LIG1       -0.4724
      5 O           9.9995    3.5569    0.3240 O.2     1  LIG1       -0.1383
      6 O           8.2760    5.3804    0.1669 O.2     1  LIG1       -0.1383
      7 O           9.4040   -2.8694    0.3379 O.3     1  LIG1       -0.4590
      8 N           7.7649    3.3135    1.4265 N.3     1  LIG1       -0.1906
      9 N           7.9247    3.2874   -1.1641 N.pl3   1  LIG1       -0.1891
     10 N           9.1573    1.4943   -1.8046 N.ar    1  LIG1       -0.2186
     11 N           8.5401   -0.7476   -1.3831 N.ar    1  LIG1       -0.2008
     12 N           9.9978   -4.8960   -0.6915 N.ar    1  LIG1       -0.2022
     13 N          11.5248   -3.0673   -0.5004 N.ar    1  LIG1       -0.2022
     14 C           7.0078    1.0214   -0.7315 C.ar    1  LIG1        0.0848
     15 C           8.0024    1.8674   -1.2278 C.ar    1  LIG1        0.1532
     16 C           5.6865    1.4904   -0.2257 C.ar    1  LIG1       -0.0094
     17 C           7.3968   -0.3113   -0.8186 C.ar    1  LIG1        0.2276
     18 C           5.0435    0.8895    0.8733 C.ar    1  LIG1       -0.0527
     19 C           5.0115    2.5731   -0.8297 C.ar    1  LIG1       -0.0527
     20 C           7.1276   -2.1462    0.5958 C.3     1  LIG1        0.1252
     21 C           3.7982    1.3348    1.3383 C.ar    1  LIG1       -0.0472
     22 C           3.7827    3.0455   -0.3511 C.ar    1  LIG1       -0.0472
     23 C           9.3764    0.1825   -1.8362 C.ar    1  LIG1        0.1219
     24 C           8.0512   -3.2475    0.0604 C.3     1  LIG1        0.1267
     25 C           3.1777    2.4179    0.7288 C.ar    1  LIG1        0.0179
     26 C          10.3220   -3.6404   -0.3333 C.ar    1  LIG1        0.3180
     27 C          10.9789   -5.6079   -1.2884 C.ar    1  LIG1        0.0483
     28 C          12.4648   -3.8256   -1.1027 C.ar    1  LIG1        0.0483
     29 C          12.2422   -5.1163   -1.5221 C.ar    1  LIG1        0.0543
     30 H           6.8501    3.7622    1.4828 H       1  LIG1        0.1456
     31 H           8.2883    3.4387    2.2936 H       1  LIG1        0.1456
     32 H           8.4399    3.6467   -1.9682 H       1  LIG1        0.1763
     33 H           5.5032    0.0567    1.3984 H       1  LIG1        0.0624
     34 H           5.4362    3.0782   -1.6960 H       1  LIG1        0.0624
     35 H           6.2719   -2.6303    1.0804 H       1  LIG1        0.0731
     36 H           7.6161   -1.5273    1.3606 H       1  LIG1        0.0731
     37 H           3.3279    0.8276    2.1777 H       1  LIG1        0.0629
     38 H           3.3115    3.8969   -0.8363 H       1  LIG1        0.0629
     39 H          10.3121   -0.1604   -2.2645 H       1  LIG1        0.1049
     40 H           7.8435   -4.1746    0.6085 H       1  LIG1        0.0732
     41 H           7.8845   -3.4037   -1.0126 H       1  LIG1        0.0732
     42 H          10.7006   -6.6182   -1.5742 H       1  LIG1        0.0843
     43 H          13.4278   -3.3402   -1.2315 H       1  LIG1        0.0843
@<TRIPOS>BOND
     1     1    25    1
     2     2    29    1
     3     3     9    1
     4     3     8    1
     5     3     6    2
     6     3     5    2
     7     4    17    1
     8     4    20    1
     9     7    24    1
    10     7    26    1
    11     9    15    1
    12    10    15   ar
    13    10    23   ar
    14    11    17   ar
    15    11    23   ar
    16    12    26   ar
    17    12    27   ar
    18    13    26   ar
    19    13    28   ar
    20    14    15   ar
    21    14    17   ar
    22    16    18   ar
    23    16    19   ar
    24    16    14    1
    25    18    21   ar
    26    19    22   ar
    27    20    24    1
    28    21    25   ar
    29    22    25   ar
    30    27    29   ar
    31    28    29   ar
    32     8    30    1
    33     8    31    1
    34     9    32    1
    35    18    33    1
    36    19    34    1
    37    20    35    1
    38    20    36    1
    39    21    37    1
    40    22    38    1
    41    23    39    1
    42    24    40    1
    43    24    41    1
    44    27    42    1
    45    28    43    1
@<TRIPOS>MOLECULE
*****
 43 45 0 0 0
SMALL
GASTEIGER

@<TRIPOS>ATOM
      1 BR          1.5105    2.9972    1.2909 Br      1  LIG1       -0.0503
      2 BR         10.4310   -4.5024   -6.1910 Br      1  LIG1       -0.0472
      3 S           8.6279    4.0939    0.1976 S.O2    1  LIG1        0.1079
      4 O           6.6659   -1.2181   -0.0870 O.3     1  LIG1       -0.4724
      5 O           9.9674    3.6351    0.4494 O.2     1  LIG1       -0.1383
      6 O           8.3164    5.4960    0.0822 O.2     1  LIG1       -0.1383
      7 O           8.9992   -3.5505   -0.4969 O.3     1  LIG1       -0.4590
      8 N           7.6719    3.5252    1.4331 N.3     1  LIG1       -0.1906
      9 N           7.9694    3.3304   -1.1378 N.pl3   1  LIG1       -0.1891
     10 N           9.2429    1.5260   -1.6764 N.ar    1  LIG1       -0.2186
     11 N           8.6909   -0.6923   -1.0675 N.ar    1  LIG1       -0.2008
     12 N           8.3647   -4.3623   -2.6122 N.ar    1  LIG1       -0.2022
     13 N          10.5223   -3.4261   -2.2003 N.ar    1  LIG1       -0.2022
     14 C           7.1022    1.0748   -0.5878 C.ar    1  LIG1        0.0848
     15 C           8.0759    1.9106   -1.1317 C.ar    1  LIG1        0.1532
     16 C           5.7663    1.5328   -0.1305 C.ar    1  LIG1       -0.0094
     17 C           7.5229   -0.2493   -0.5655 C.ar    1  LIG1        0.2276
     18 C           5.1772    1.0469    1.0526 C.ar    1  LIG1       -0.0527
     19 C           5.0252    2.4771   -0.8700 C.ar    1  LIG1       -0.0527
     20 C           7.3348   -2.2449    0.6676 C.3     1  LIG1        0.1252
     21 C           3.9102    1.4707    1.4711 C.ar    1  LIG1       -0.0472
     22 C           3.7680    2.9227   -0.4457 C.ar    1  LIG1       -0.0472
     23 C           9.4986    0.2210   -1.6042 C.ar    1  LIG1        0.1219
     24 C           7.6055   -3.4868   -0.1856 C.3     1  LIG1        0.1267
     25 C           3.2136    2.4113    0.7213 C.ar    1  LIG1        0.0179
     26 C           9.2805   -3.7748   -1.8223 C.ar    1  LIG1        0.3180
     27 C           8.7293   -4.5576   -3.8969 C.ar    1  LIG1        0.0483
     28 C          10.8356   -3.6554   -3.4925 C.ar    1  LIG1        0.0483
     29 C           9.9646   -4.2171   -4.3961 C.ar    1  LIG1        0.0543
     30 H           6.7614    3.9849    1.3990 H       1  LIG1        0.1456
     31 H           8.1394    3.7057    2.3219 H       1  LIG1        0.1456
     32 H           8.5048    3.6629   -1.9401 H       1  LIG1        0.1763
     33 H           5.7025    0.3239    1.6735 H       1  LIG1        0.0624
     34 H           5.4198    2.8834   -1.8002 H       1  LIG1        0.0624
     35 H           6.6207   -2.5196    1.4526 H       1  LIG1        0.0731
     36 H           8.2317   -1.8675    1.1765 H       1  LIG1        0.0731
     37 H           3.4819    1.0585    2.3811 H       1  LIG1        0.0629
     38 H           3.2336    3.6609   -1.0385 H       1  LIG1        0.0629
     39 H          10.4401   -0.1307   -2.0119 H       1  LIG1        0.1049
     40 H           7.3907   -4.3814    0.4100 H       1  LIG1        0.0732
     41 H           6.9380   -3.4838   -1.0540 H       1  LIG1        0.0732
     42 H           7.9666   -5.0103   -4.5234 H       1  LIG1        0.0843
     43 H          11.8411   -3.3605   -3.7772 H       1  LIG1        0.0843
@<TRIPOS>BOND
     1     1    25    1
     2     2    29    1
     3     3     9    1
     4     3     8    1
     5     3     6    2
     6     3     5    2
     7     4    17    1
     8     4    20    1
     9     7    24    1
    10     7    26    1
    11     9    15    1
    12    10    15   ar
    13    10    23   ar
    14    11    17   ar
    15    11    23   ar
    16    12    26   ar
    17    12    27   ar
    18    13    26   ar
    19    13    28   ar
    20    14    15   ar
    21    14    17   ar
    22    16    18   ar
    23    16    19   ar
    24    16    14    1
    25    18    21   ar
    26    19    22   ar
    27    20    24    1
    28    21    25   ar
    29    22    25   ar
    30    27    29   ar
    31    28    29   ar
    32     8    30    1
    33     8    31    1
    34     9    32    1
    35    18    33    1
    36    19    34    1
    37    20    35    1
    38    20    36    1
    39    21    37    1
    40    22    38    1
    41    23    39    1
    42    24    40    1
    43    24    41    1
    44    27    42    1
    45    28    43    1
@<TRIPOS>MOLECULE
*****
 43 45 0 0 0
SMALL
GASTEIGER

@<TRIPOS>ATOM
      1 BR          1.5538    2.9781    1.3230 Br      1  LIG1       -0.0503
      2 BR         10.4200   -4.5068   -6.1907 Br      1  LIG1       -0.0472
      3 S           8.5917    4.1266    0.0224 S.O2    1  LIG1        0.1079
      4 O           6.7292   -1.2138    0.1190 O.3     1  LIG1       -0.4724
      5 O           9.9421    3.7061    0.2849 O.2     1  LIG1       -0.1383
      6 O           8.2555    5.5140   -0.1776 O.2     1  LIG1       -0.1383
      7 O           9.0194   -3.6017   -0.4818 O.3     1  LIG1       -0.4590
      8 N           7.6588    3.6274    1.3046 N.3     1  LIG1       -0.1906
      9 N           7.9264    3.2701   -1.2523 N.pl3   1  LIG1       -0.1891
     10 N           9.2342    1.4599   -1.7030 N.ar    1  LIG1       -0.2186
     11 N           8.7393   -0.7262   -0.9371 N.ar    1  LIG1       -0.2008
     12 N           8.3738   -4.3957   -2.5988 N.ar    1  LIG1       -0.2022
     13 N          10.5339   -3.4607   -2.1928 N.ar    1  LIG1       -0.2022
     14 C           7.1282    1.0363   -0.5472 C.ar    1  LIG1        0.0848
     15 C           8.0705    1.8557   -1.1619 C.ar    1  LIG1        0.1532
     16 C           5.7961    1.4947   -0.0961 C.ar    1  LIG1       -0.0094
     17 C           7.5702   -0.2757   -0.4461 C.ar    1  LIG1        0.2276
     18 C           4.9705    2.2656   -0.9376 C.ar    1  LIG1       -0.0527
     19 C           5.3022    1.1809    1.1837 C.ar    1  LIG1       -0.0527
     20 C           7.4140   -2.3013    0.7644 C.3     1  LIG1        0.1252
     21 C           3.7126    2.7113   -0.5177 C.ar    1  LIG1       -0.0472
     22 C           4.0410    1.6157    1.6056 C.ar    1  LIG1       -0.0472
     23 C           9.5178    0.1670   -1.5486 C.ar    1  LIG1        0.1219
     24 C           7.6252   -3.4836   -0.1860 C.3     1  LIG1        0.1267
     25 C           3.2533    2.3815    0.7527 C.ar    1  LIG1        0.0179
     26 C           9.2952   -3.8144   -1.8103 C.ar    1  LIG1        0.3180
     27 C           8.7315   -4.5813   -3.8871 C.ar    1  LIG1        0.0483
     28 C          10.8397   -3.6798   -3.4885 C.ar    1  LIG1        0.0483
     29 C           9.9638   -4.2358   -4.3909 C.ar    1  LIG1        0.0543
     30 H           6.7395    4.0611    1.2486 H       1  LIG1        0.1456
     31 H           8.1313    3.8776    2.1746 H       1  LIG1        0.1456
     32 H           8.4371    3.5676   -2.0839 H       1  LIG1        0.1763
     33 H           5.3002    2.5288   -1.9417 H       1  LIG1        0.0624
     34 H           5.9044    0.5930    1.8743 H       1  LIG1        0.0624
     35 H           6.7331   -2.6217    1.5613 H       1  LIG1        0.0731
     36 H           8.3367   -1.9679    1.2571 H       1  LIG1        0.0731
     37 H           3.1039    3.3087   -1.1917 H       1  LIG1        0.0629
     38 H           3.6879    1.3491    2.5983 H       1  LIG1        0.0629
     39 H          10.4591   -0.1922   -1.9505 H       1  LIG1        0.1049
     40 H           7.3442   -4.4105    0.3268 H       1  LIG1        0.0732
     41 H           6.9817   -3.3633   -1.0648 H       1  LIG1        0.0732
     42 H           7.9660   -5.0303   -4.5128 H       1  LIG1        0.0843
     43 H          11.8431   -3.3812   -3.7770 H       1  LIG1        0.0843
@<TRIPOS>BOND
     1     1    25    1
     2     2    29    1
     3     3     9    1
     4     3     8    1
     5     3     6    2
     6     3     5    2
     7     4    17    1
     8     4    20    1
     9     7    24    1
    10     7    26    1
    11     9    15    1
    12    10    15   ar
    13    10    23   ar
    14    11    17   ar
    15    11    23   ar
    16    12    26   ar
    17    12    27   ar
    18    13    26   ar
    19    13    28   ar
    20    14    15   ar
    21    14    17   ar
    22    16    18   ar
    23    16    19   ar
    24    16    14    1
    25    18    21   ar
    26    19    22   ar
    27    20    24    1
    28    21    25   ar
    29    22    25   ar
    30    27    29   ar
    31    28    29   ar
    32     8    30    1
    33     8    31    1
    34     9    32    1
    35    18    33    1
    36    19    34    1
    37    20    35    1
    38    20    36    1
    39    21    37    1
    40    22    38    1
    41    23    39    1
    42    24    40    1
    43    24    41    1
    44    27    42    1
    45    28    43    1
@<TRIPOS>MOLECULE
*****
 43 45 0 0 0
SMALL
GASTEIGER

@<TRIPOS>ATOM
      1 BR          1.5848    2.8744    1.1937 Br      1  LIG1       -0.0503
      2 BR          8.6035   -2.2744   -6.5959 Br      1  LIG1       -0.0472
      3 S           8.5774    4.1939    0.0816 S.O2    1  LIG1        0.1079
      4 O           6.8719   -1.2411    0.0108 O.3     1  LIG1       -0.4724
      5 O           9.9431    3.8411    0.3672 O.2     1  LIG1       -0.1383
      6 O           8.1750    5.5633   -0.1197 O.2     1  LIG1       -0.1383
      7 O           8.7371   -3.7561   -0.8357 O.3     1  LIG1       -0.4590
      8 N           7.6503    3.6391    1.3449 N.3     1  LIG1       -0.1906
      9 N           7.9821    3.3098   -1.2087 N.pl3   1  LIG1       -0.1891
     10 N           9.3841    1.5566   -1.5936 N.ar    1  LIG1       -0.2186
     11 N           8.9424   -0.6498   -0.8559 N.ar    1  LIG1       -0.2008
     12 N           7.4529   -3.2157   -2.7371 N.ar    1  LIG1       -0.2022
     13 N           9.8381   -3.3003   -2.7867 N.ar    1  LIG1       -0.2022
     14 C           7.2380    1.0428   -0.5529 C.ar    1  LIG1        0.0848
     15 C           8.1788    1.9032   -1.1131 C.ar    1  LIG1        0.1532
     16 C           5.8775    1.4570   -0.1434 C.ar    1  LIG1       -0.0094
     17 C           7.7212   -0.2547   -0.4477 C.ar    1  LIG1        0.2276
     18 C           5.0622    2.2284   -0.9942 C.ar    1  LIG1       -0.0527
     19 C           5.3533    1.1147    1.1174 C.ar    1  LIG1       -0.0527
     20 C           7.5276   -2.3012    0.7202 C.3     1  LIG1        0.1252
     21 C           3.7885    2.6525   -0.5994 C.ar    1  LIG1       -0.0472
     22 C           4.0766    1.5284    1.5144 C.ar    1  LIG1       -0.0472
     23 C           9.7149    0.2780   -1.4207 C.ar    1  LIG1        0.1219
     24 C           7.5367   -3.6080   -0.0769 C.3     1  LIG1        0.1267
     25 C           3.3018    2.2993    0.6543 C.ar    1  LIG1        0.0179
     26 C           8.6527   -3.3947   -2.1587 C.ar    1  LIG1        0.3180
     27 C           7.4698   -2.8832   -4.0450 C.ar    1  LIG1        0.0483
     28 C           9.7942   -2.9659   -4.0929 C.ar    1  LIG1        0.0483
     29 C           8.6243   -2.7404   -4.7784 C.ar    1  LIG1        0.0543
     30 H           6.7116    4.0337    1.2746 H       1  LIG1        0.1456
     31 H           8.0957    3.9070    2.2233 H       1  LIG1        0.1456
     32 H           8.5025    3.6282   -2.0261 H       1  LIG1        0.1763
     33 H           5.4150    2.5148   -1.9840 H       1  LIG1        0.0624
     34 H           5.9458    0.5258    1.8155 H       1  LIG1        0.0624
     35 H           6.9115   -2.4600    1.6133 H       1  LIG1        0.0731
     36 H           8.5273   -2.0288    1.0815 H       1  LIG1        0.0731
     37 H           3.1905    3.2553   -1.2782 H       1  LIG1        0.0629
     38 H           3.7024    1.2445    2.4946 H       1  LIG1        0.0629
     39 H          10.6923   -0.0387   -1.7677 H       1  LIG1        0.1049
     40 H           7.5618   -4.4333    0.6447 H       1  LIG1        0.0732
     41 H           6.6179   -3.7432   -0.6580 H       1  LIG1        0.0732
     42 H           6.4906   -2.7349   -4.4900 H       1  LIG1        0.0843
     43 H          10.7635   -2.8861   -4.5760 H       1  LIG1        0.0843
@<TRIPOS>BOND
     1     1    25    1
     2     2    29    1
     3     3     9    1
     4     3     8    1
     5     3     6    2
     6     3     5    2
     7     4    17    1
     8     4    20    1
     9     7    24    1
    10     7    26    1
    11     9    15    1
    12    10    15   ar
    13    10    23   ar
    14    11    17   ar
    15    11    23   ar
    16    12    26   ar
    17    12    27   ar
    18    13    26   ar
    19    13    28   ar
    20    14    15   ar
    21    14    17   ar
    22    16    18   ar
    23    16    19   ar
    24    16    14    1
    25    18    21   ar
    26    19    22   ar
    27    20    24    1
    28    21    25   ar
    29    22    25   ar
    30    27    29   ar
    31    28    29   ar
    32     8    30    1
    33     8    31    1
    34     9    32    1
    35    18    33    1
    36    19    34    1
    37    20    35    1
    38    20    36    1
    39    21    37    1
    40    22    38    1
    41    23    39    1
    42    24    40    1
    43    24    41    1
    44    27    42    1
    45    28    43    1
@<TRIPOS>MOLECULE
*****
 43 45 0 0 0
SMALL
GASTEIGER

@<TRIPOS>ATOM
      1 BR          1.6004    3.1343    1.3363 Br      1  LIG1       -0.0503
      2 BR          4.6918    2.2048   -5.6845 Br      1  LIG1       -0.0472
      3 S           8.6584    4.0524    0.1279 S.O2    1  LIG1        0.1079
      4 O           6.4919   -1.2357   -0.1688 O.3     1  LIG1       -0.4724
      5 O           9.9819    3.5748    0.4284 O.2     1  LIG1       -0.1383
      6 O           8.3827    5.4547   -0.0620 O.2     1  LIG1       -0.1383
      7 O           6.7411   -2.6428   -2.9053 O.3     1  LIG1       -0.4590
      8 N           7.6632    3.5687    1.3665 N.3     1  LIG1       -0.1906
      9 N           8.0097    3.2453   -1.1844 N.pl3   1  LIG1       -0.1891
     10 N           9.2465    1.3983   -1.6679 N.ar    1  LIG1       -0.2186
     11 N           8.5996   -0.8105   -1.0903 N.ar    1  LIG1       -0.2008
     12 N           5.0732   -0.9851   -3.0851 N.ar    1  LIG1       -0.2022
     13 N           6.9536   -1.0648   -4.5463 N.ar    1  LIG1       -0.2022
     14 C           7.0901    1.0215   -0.5965 C.ar    1  LIG1        0.0848
     15 C           8.0926    1.8251   -1.1308 C.ar    1  LIG1        0.1532
     16 C           5.7800    1.5270   -0.1306 C.ar    1  LIG1       -0.0094
     17 C           7.4299   -0.3275   -0.6250 C.ar    1  LIG1        0.2276
     18 C           5.0173    2.4108   -0.9185 C.ar    1  LIG1       -0.0527
     19 C           5.2472    1.1468    1.1153 C.ar    1  LIG1       -0.0527
     20 C           6.7530   -2.6142   -0.4516 C.3     1  LIG1        0.1252
     21 C           3.7778    2.8918   -0.4848 C.ar    1  LIG1       -0.0472
     22 C           4.0056    1.6207    1.5527 C.ar    1  LIG1       -0.0472
     23 C           9.4486    0.0820   -1.6029 C.ar    1  LIG1        0.1219
     24 C           6.0542   -3.0790   -1.7322 C.3     1  LIG1        0.1267
     25 C           3.2768    2.4910    0.7491 C.ar    1  LIG1        0.0179
     26 C           6.2237   -1.5266   -3.5185 C.ar    1  LIG1        0.3180
     27 C           4.6420    0.1095   -3.7459 C.ar    1  LIG1        0.0483
     28 C           6.4777    0.0333   -5.1708 C.ar    1  LIG1        0.0483
     29 C           5.3155    0.6698   -4.8048 C.ar    1  LIG1        0.0543
     30 H           6.7601    4.0370    1.2844 H       1  LIG1        0.1456
     31 H           8.1093    3.7905    2.2568 H       1  LIG1        0.1456
     32 H           8.5639    3.5389   -1.9890 H       1  LIG1        0.1763
     33 H           5.3845    2.7365   -1.8902 H       1  LIG1        0.0624
     34 H           5.8033    0.4723    1.7650 H       1  LIG1        0.0624
     35 H           6.3175   -3.1709    0.3866 H       1  LIG1        0.0731
     36 H           7.8195   -2.8653   -0.4552 H       1  LIG1        0.0731
     37 H           3.2163    3.5744   -1.1175 H       1  LIG1        0.0629
     38 H           3.6214    1.3011    2.5179 H       1  LIG1        0.0629
     39 H          10.3832   -0.2977   -2.0011 H       1  LIG1        0.1049
     40 H           6.0979   -4.1741   -1.7578 H       1  LIG1        0.0732
     41 H           4.9889   -2.8224   -1.7225 H       1  LIG1        0.0732
     42 H           3.7119    0.5293   -3.3739 H       1  LIG1        0.0843
     43 H           7.0861    0.3867   -5.9982 H       1  LIG1        0.0843
@<TRIPOS>BOND
     1     1    25    1
     2     2    29    1
     3     3     9    1
     4     3     8    1
     5     3     6    2
     6     3     5    2
     7     4    17    1
     8     4    20    1
     9     7    24    1
    10     7    26    1
    11     9    15    1
    12    10    15   ar
    13    10    23   ar
    14    11    17   ar
    15    11    23   ar
    16    12    26   ar
    17    12    27   ar
    18    13    26   ar
    19    13    28   ar
    20    14    15   ar
    21    14    17   ar
    22    16    18   ar
    23    16    19   ar
    24    16    14    1
    25    18    21   ar
    26    19    22   ar
    27    20    24    1
    28    21    25   ar
    29    22    25   ar
    30    27    29   ar
    31    28    29   ar
    32     8    30    1
    33     8    31    1
    34     9    32    1
    35    18    33    1
    36    19    34    1
    37    20    35    1
    38    20    36    1
    39    21    37    1
    40    22    38    1
    41    23    39    1
    42    24    40    1
    43    24    41    1
    44    27    42    1
    45    28    43    1
@<TRIPOS>MOLECULE
*****
 43 45 0 0 0
SMALL
GASTEIGER

@<TRIPOS>ATOM
      1 BR          1.6367    3.8284    1.6812 Br      1  LIG1       -0.0503
      2 BR          6.5540   -7.2159    4.3262 Br      1  LIG1       -0.0472
      3 S           8.8368    4.0364   -0.0800 S.O2    1  LIG1        0.1079
      4 O           6.0128   -0.8499    0.2049 O.3     1  LIG1       -0.4724
      5 O          10.1306    3.4274    0.0695 O.2     1  LIG1       -0.1383
      6 O           8.6861    5.4589   -0.2693 O.2     1  LIG1       -0.1383
      7 O           4.2433   -2.4674    1.5944 O.3     1  LIG1       -0.4590
      8 N           7.9549    3.6689    1.2782 N.3     1  LIG1       -0.1906
      9 N           7.9616    3.2846   -1.2894 N.pl3   1  LIG1       -0.1891
     10 N           8.8659    1.2502   -1.8068 N.ar    1  LIG1       -0.2186
     11 N           7.9620   -0.8245   -1.0705 N.ar    1  LIG1       -0.2008
     12 N           5.4725   -4.4652    1.4349 N.ar    1  LIG1       -0.2022
     13 N           4.5461   -3.6981    3.4963 N.ar    1  LIG1       -0.2022
     14 C           6.8202    1.2482   -0.4944 C.ar    1  LIG1        0.0848
     15 C           7.8550    1.8719   -1.1761 C.ar    1  LIG1        0.1532
     16 C           5.6291    1.9269    0.0603 C.ar    1  LIG1       -0.0094
     17 C           6.9577   -0.1338   -0.4929 C.ar    1  LIG1        0.2276
     18 C           5.1579    1.6448    1.3577 C.ar    1  LIG1       -0.0527
     19 C           4.8797    2.8257   -0.7209 C.ar    1  LIG1       -0.0527
     20 C           5.6309   -2.0733   -0.4169 C.3     1  LIG1        0.1252
     21 C           3.9736    2.2072    1.8425 C.ar    1  LIG1       -0.0472
     22 C           3.7023    3.4031   -0.2353 C.ar    1  LIG1       -0.0472
     23 C           8.8766   -0.0824   -1.7013 C.ar    1  LIG1        0.1219
     24 C           4.2681   -2.4646    0.1645 C.3     1  LIG1        0.1267
     25 C           3.2498    3.0825    1.0410 C.ar    1  LIG1        0.0179
     26 C           4.7714   -3.5918    2.1775 C.ar    1  LIG1        0.3180
     27 C           5.9961   -5.5178    2.0982 C.ar    1  LIG1        0.0483
     28 C           5.0767   -4.7796    4.1041 C.ar    1  LIG1        0.0483
     29 C           5.8228   -5.7293    3.4460 C.ar    1  LIG1        0.0543
     30 H           7.1037    4.2325    1.2996 H       1  LIG1        0.1456
     31 H           8.5271    3.8381    2.1057 H       1  LIG1        0.1456
     32 H           8.4619    3.4790   -2.1580 H       1  LIG1        0.1763
     33 H           5.7003    0.9515    2.0009 H       1  LIG1        0.0624
     34 H           5.1944    3.0689   -1.7345 H       1  LIG1        0.0624
     35 H           6.3933   -2.8315   -0.2194 H       1  LIG1        0.0731
     36 H           5.5212   -1.9452   -1.5016 H       1  LIG1        0.0731
     37 H           3.6228    1.9379    2.8356 H       1  LIG1        0.0629
     38 H           3.1403    4.0842   -0.8687 H       1  LIG1        0.0629
     39 H           9.7016   -0.6080   -2.1709 H       1  LIG1        0.1049
     40 H           3.5434   -1.6945   -0.1285 H       1  LIG1        0.0732
     41 H           3.8982   -3.4101   -0.2495 H       1  LIG1        0.0732
     42 H           6.5774   -6.1999    1.4849 H       1  LIG1        0.0843
     43 H           4.8729   -4.8505    5.1685 H       1  LIG1        0.0843
@<TRIPOS>BOND
     1     1    25    1
     2     2    29    1
     3     3     9    1
     4     3     8    1
     5     3     6    2
     6     3     5    2
     7     4    17    1
     8     4    20    1
     9     7    24    1
    10     7    26    1
    11     9    15    1
    12    10    15   ar
    13    10    23   ar
    14    11    17   ar
    15    11    23   ar
    16    12    26   ar
    17    12    27   ar
    18    13    26   ar
    19    13    28   ar
    20    14    15   ar
    21    14    17   ar
    22    16    18   ar
    23    16    19   ar
    24    16    14    1
    25    18    21   ar
    26    19    22   ar
    27    20    24    1
    28    21    25   ar
    29    22    25   ar
    30    27    29   ar
    31    28    29   ar
    32     8    30    1
    33     8    31    1
    34     9    32    1
    35    18    33    1
    36    19    34    1
    37    20    35    1
    38    20    36    1
    39    21    37    1
    40    22    38    1
    41    23    39    1
    42    24    40    1
    43    24    41    1
    44    27    42    1
    45    28    43    1
@<TRIPOS>MOLECULE
*****
 43 45 0 0 0
SMALL
GASTEIGER

@<TRIPOS>ATOM
      1 BR          1.7614    3.9364    1.8168 Br      1  LIG1       -0.0503
      2 BR          6.5123   -7.2555    4.3482 Br      1  LIG1       -0.0472
      3 S           8.9606    4.0226   -0.1502 S.O2    1  LIG1        0.1079
      4 O           6.0036   -0.8111    0.1854 O.3     1  LIG1       -0.4724
      5 O          10.3286    3.6092   -0.3446 O.2     1  LIG1       -0.1383
      6 O           8.5965    5.4149   -0.0837 O.2     1  LIG1       -0.1383
      7 O           4.2823   -2.4582    1.6341 O.3     1  LIG1       -0.4590
      8 N           8.4377    3.3478    1.2759 N.3     1  LIG1       -0.1906
      9 N           7.9766    3.3050   -1.2917 N.pl3   1  LIG1       -0.1891
     10 N           8.8589    1.2617   -1.8629 N.ar    1  LIG1       -0.2186
     11 N           7.9374   -0.8067   -1.1215 N.ar    1  LIG1       -0.2008
     12 N           5.4730   -4.4789    1.4666 N.ar    1  LIG1       -0.2022
     13 N           4.5714   -3.6966    3.5334 N.ar    1  LIG1       -0.2022
     14 C           6.8394    1.2759   -0.5095 C.ar    1  LIG1        0.0848
     15 C           7.8681    1.8904   -1.2098 C.ar    1  LIG1        0.1532
     16 C           5.6792    1.9766    0.0847 C.ar    1  LIG1       -0.0094
     17 C           6.9535   -0.1075   -0.5198 C.ar    1  LIG1        0.2276
     18 C           5.2382    1.6964    1.3925 C.ar    1  LIG1       -0.0527
     19 C           4.9255    2.8932   -0.6712 C.ar    1  LIG1       -0.0527
     20 C           5.6521   -2.0685   -0.3857 C.3     1  LIG1        0.1252
     21 C           4.0765    2.2773    1.9106 C.ar    1  LIG1       -0.0472
     22 C           3.7716    3.4892   -0.1524 C.ar    1  LIG1       -0.0472
     23 C           8.8502   -0.0721   -1.7655 C.ar    1  LIG1        0.1219
     24 C           4.2933   -2.4615    0.2038 C.3     1  LIG1        0.1267
     25 C           3.3467    3.1695    1.1329 C.ar    1  LIG1        0.0179
     26 C           4.7917   -3.5936    2.2138 C.ar    1  LIG1        0.3180
     27 C           5.9771   -5.5436    2.1257 C.ar    1  LIG1        0.0483
     28 C           5.0834   -4.7896    4.1374 C.ar    1  LIG1        0.0483
     29 C           5.8064   -5.7530    3.4741 C.ar    1  LIG1        0.0543
     30 H           7.5822    3.8113    1.5828 H       1  LIG1        0.1456
     31 H           9.1782    3.4347    1.9732 H       1  LIG1        0.1456
     32 H           8.3824    3.5366   -2.1978 H       1  LIG1        0.1763
     33 H           5.7813    0.9862    2.0161 H       1  LIG1        0.0624
     34 H           5.2164    3.1373   -1.6916 H       1  LIG1        0.0624
     35 H           6.4281   -2.8013   -0.1486 H       1  LIG1        0.0731
     36 H           5.5469   -1.9868   -1.4749 H       1  LIG1        0.0731
     37 H           3.7449    2.0081    2.9104 H       1  LIG1        0.0629
     38 H           3.2068    4.1847   -0.7676 H       1  LIG1        0.0629
     39 H           9.6589   -0.6065   -2.2537 H       1  LIG1        0.1049
     40 H           3.5633   -1.6956   -0.0870 H       1  LIG1        0.0732
     41 H           3.9244   -3.4104   -0.2035 H       1  LIG1        0.0732
     42 H           6.5398   -6.2374    1.5081 H       1  LIG1        0.0843
     43 H           4.8837   -4.8577    5.2027 H       1  LIG1        0.0843
@<TRIPOS>BOND
     1     1    25    1
     2     2    29    1
     3     3     9    1
     4     3     8    1
     5     3     6    2
     6     3     5    2
     7     4    17    1
     8     4    20    1
     9     7    24    1
    10     7    26    1
    11     9    15    1
    12    10    15   ar
    13    10    23   ar
    14    11    17   ar
    15    11    23   ar
    16    12    26   ar
    17    12    27   ar
    18    13    26   ar
    19    13    28   ar
    20    14    15   ar
    21    14    17   ar
    22    16    18   ar
    23    16    19   ar
    24    16    14    1
    25    18    21   ar
    26    19    22   ar
    27    20    24    1
    28    21    25   ar
    29    22    25   ar
    30    27    29   ar
    31    28    29   ar
    32     8    30    1
    33     8    31    1
    34     9    32    1
    35    18    33    1
    36    19    34    1
    37    20    35    1
    38    20    36    1
    39    21    37    1
    40    22    38    1
    41    23    39    1
    42    24    40    1
    43    24    41    1
    44    27    42    1
    45    28    43    1
@<TRIPOS>MOLECULE
*****
 43 45 0 0 0
SMALL
GASTEIGER

@<TRIPOS>ATOM
      1 BR          1.6069    3.2563    1.4749 Br      1  LIG1       -0.0503
      2 BR          1.4393   -1.4554    5.2833 Br      1  LIG1       -0.0472
      3 S           8.7948    3.8629    0.1063 S.O2    1  LIG1        0.1079
      4 O           6.3758   -1.2730   -0.1020 O.3     1  LIG1       -0.4724
      5 O          10.1844    3.4909    0.0824 O.2     1  LIG1       -0.1383
      6 O           8.3849    5.2445    0.1661 O.2     1  LIG1       -0.1383
      7 O           4.3624   -3.2289    0.4098 O.3     1  LIG1       -0.4590
      8 N           8.1078    3.1323    1.4317 N.3     1  LIG1       -0.1906
      9 N           7.9759    3.1588   -1.1679 N.pl3   1  LIG1       -0.1891
     10 N           9.0945    1.2733   -1.8036 N.ar    1  LIG1       -0.2186
     11 N           8.3733   -0.9215   -1.2580 N.ar    1  LIG1       -0.2008
     12 N           4.4519   -2.3163    2.5851 N.ar    1  LIG1       -0.2022
     13 N           2.3987   -2.9277    1.5393 N.ar    1  LIG1       -0.2022
     14 C           6.9764    0.9651   -0.6289 C.ar    1  LIG1        0.0848
     15 C           7.9899    1.7362   -1.1955 C.ar    1  LIG1        0.1532
     16 C           5.7060    1.5246   -0.1005 C.ar    1  LIG1       -0.0094
     17 C           7.2639   -0.3983   -0.6920 C.ar    1  LIG1        0.2276
     18 C           5.1248    1.0665    1.0967 C.ar    1  LIG1       -0.0527
     19 C           5.0101    2.5323   -0.8008 C.ar    1  LIG1       -0.0527
     20 C           6.5588   -2.6499   -0.4364 C.3     1  LIG1        0.1252
     21 C           3.9053    1.5738    1.5621 C.ar    1  LIG1       -0.0472
     22 C           3.8028    3.0604   -0.3297 C.ar    1  LIG1       -0.0472
     23 C           9.2352   -0.0515   -1.7897 C.ar    1  LIG1        0.1219
     24 C           5.7563   -3.5076    0.5413 C.3     1  LIG1        0.1267
     25 C           3.2515    2.5709    0.8475 C.ar    1  LIG1        0.0179
     26 C           3.7358   -2.8132    1.5609 C.ar    1  LIG1        0.3180
     27 C           3.7484   -1.9295    3.6711 C.ar    1  LIG1        0.0483
     28 C           1.7455   -2.5209    2.6489 C.ar    1  LIG1        0.0483
     29 C           2.3788   -2.0097    3.7569 C.ar    1  LIG1        0.0543
     30 H           7.1924    3.5455    1.6122 H       1  LIG1        0.1456
     31 H           8.7306    3.2499    2.2316 H       1  LIG1        0.1456
     32 H           8.4415    3.4862   -2.0131 H       1  LIG1        0.1763
     33 H           5.6105    0.2879    1.6832 H       1  LIG1        0.0624
     34 H           5.3982    2.9205   -1.7414 H       1  LIG1        0.0624
     35 H           7.6083   -2.9553   -0.3541 H       1  LIG1        0.0731
     36 H           6.2012   -2.8093   -1.4601 H       1  LIG1        0.0731
     37 H           3.4751    1.1748    2.4762 H       1  LIG1        0.0629
     38 H           3.3031    3.8413   -0.8972 H       1  LIG1        0.0629
     39 H          10.1307   -0.4586   -2.2463 H       1  LIG1        0.1049
     40 H           5.8947   -4.5631    0.2809 H       1  LIG1        0.0732
     41 H           6.1528   -3.3813    1.5545 H       1  LIG1        0.0732
     42 H           4.3480   -1.5415    4.4894 H       1  LIG1        0.0843
     43 H           0.6656   -2.6279    2.6075 H       1  LIG1        0.0843
@<TRIPOS>BOND
     1     1    25    1
     2     2    29    1
     3     3     9    1
     4     3     8    1
     5     3     6    2
     6     3     5    2
     7     4    17    1
     8     4    20    1
     9     7    24    1
    10     7    26    1
    11     9    15    1
    12    10    15   ar
    13    10    23   ar
    14    11    17   ar
    15    11    23   ar
    16    12    26   ar
    17    12    27   ar
    18    13    26   ar
    19    13    28   ar
    20    14    15   ar
    21    14    17   ar
    22    16    18   ar
    23    16    19   ar
    24    16    14    1
    25    18    21   ar
    26    19    22   ar
    27    20    24    1
    28    21    25   ar
    29    22    25   ar
    30    27    29   ar
    31    28    29   ar
    32     8    30    1
    33     8    31    1
    34     9    32    1
    35    18    33    1
    36    19    34    1
    37    20    35    1
    38    20    36    1
    39    21    37    1
    40    22    38    1
    41    23    39    1
    42    24    40    1
    43    24    41    1
    44    27    42    1
    45    28    43    1
@<TRIPOS>MOLECULE
*****
 43 45 0 0 0
SMALL
GASTEIGER

@<TRIPOS>ATOM
      1 BR          1.4824    3.0883    1.3953 Br      1  LIG1       -0.0503
      2 BR          1.3599   -1.3349    5.2742 Br      1  LIG1       -0.0472
      3 S           7.2575    3.2621   -3.2461 S.O2    1  LIG1        0.1079
      4 O           6.6821   -1.1860    0.4211 O.3     1  LIG1       -0.4724
      5 O           6.4959    4.4808   -3.3788 O.2     1  LIG1       -0.1383
      6 O           8.4040    2.9979   -4.0706 O.2     1  LIG1       -0.1383
      7 O           4.4804   -3.0827    0.5190 O.3     1  LIG1       -0.4590
      8 N           6.2011    2.0018   -3.5164 N.3     1  LIG1       -0.1906
      9 N           7.6780    3.0772   -1.6433 N.pl3   1  LIG1       -0.1891
     10 N           9.1801    1.3607   -1.5702 N.ar    1  LIG1       -0.2186
     11 N           8.6780   -0.7758   -0.6818 N.ar    1  LIG1       -0.2008
     12 N           4.4753   -2.1653    2.6866 N.ar    1  LIG1       -0.2022
     13 N           2.4692   -2.8217    1.5769 N.ar    1  LIG1       -0.2022
     14 C           7.0026    0.9840   -0.5272 C.ar    1  LIG1        0.0848
     15 C           7.9489    1.7536   -1.2056 C.ar    1  LIG1        0.1532
     16 C           5.6777    1.4890   -0.0768 C.ar    1  LIG1       -0.0094
     17 C           7.4625   -0.3122   -0.3106 C.ar    1  LIG1        0.2276
     18 C           4.5144    0.6982   -0.1553 C.ar    1  LIG1       -0.0527
     19 C           5.5235    2.7848    0.4582 C.ar    1  LIG1       -0.0527
     20 C           6.7638   -2.5282   -0.0747 C.3     1  LIG1        0.1252
     21 C           3.2713    1.1645    0.2918 C.ar    1  LIG1       -0.0472
     22 C           4.2794    3.2690    0.8788 C.ar    1  LIG1       -0.0472
     23 C           9.4840    0.0962   -1.2875 C.ar    1  LIG1        0.1219
     24 C           5.8471   -3.4354    0.7424 C.3     1  LIG1        0.1267
     25 C           3.1588    2.4513    0.8020 C.ar    1  LIG1        0.0179
     26 C           3.8026   -2.6876    1.6481 C.ar    1  LIG1        0.3180
     27 C           3.7295   -1.7695    3.7401 C.ar    1  LIG1        0.0483
     28 C           1.7737   -2.4189    2.6623 C.ar    1  LIG1        0.0483
     29 C           2.3603   -1.8797    3.7834 C.ar    1  LIG1        0.0543
     30 H           6.7376    1.1976   -3.8451 H       1  LIG1        0.1456
     31 H           5.5201    2.2916   -4.2170 H       1  LIG1        0.1456
     32 H           8.5160    3.6413   -1.5071 H       1  LIG1        0.1763
     33 H           4.5535   -0.3080   -0.5663 H       1  LIG1        0.0624
     34 H           6.3795    3.4499    0.5562 H       1  LIG1        0.0624
     35 H           7.7862   -2.9141    0.0136 H       1  LIG1        0.0731
     36 H           6.4488   -2.5412   -1.1261 H       1  LIG1        0.0731
     37 H           2.4050    0.5102    0.2322 H       1  LIG1        0.0629
     38 H           4.2033    4.2826    1.2648 H       1  LIG1        0.0629
     39 H          10.4677   -0.2563   -1.5778 H       1  LIG1        0.1049
     40 H           5.9639   -4.4641    0.3825 H       1  LIG1        0.0732
     41 H           6.1497   -3.4386    1.7956 H       1  LIG1        0.0732
     42 H           4.2950   -1.3520    4.5681 H       1  LIG1        0.0843
     43 H           0.6980   -2.5521    2.5909 H       1  LIG1        0.0843
@<TRIPOS>BOND
     1     1    25    1
     2     2    29    1
     3     3     9    1
     4     3     8    1
     5     3     6    2
     6     3     5    2
     7     4    17    1
     8     4    20    1
     9     7    24    1
    10     7    26    1
    11     9    15    1
    12    10    15   ar
    13    10    23   ar
    14    11    17   ar
    15    11    23   ar
    16    12    26   ar
    17    12    27   ar
    18    13    26   ar
    19    13    28   ar
    20    14    15   ar
    21    14    17   ar
    22    16    18   ar
    23    16    19   ar
    24    16    14    1
    25    18    21   ar
    26    19    22   ar
    27    20    24    1
    28    21    25   ar
    29    22    25   ar
    30    27    29   ar
    31    28    29   ar
    32     8    30    1
    33     8    31    1
    34     9    32    1
    35    18    33    1
    36    19    34    1
    37    20    35    1
    38    20    36    1
    39    21    37    1
    40    22    38    1
    41    23    39    1
    42    24    40    1
    43    24    41    1
    44    27    42    1
    45    28    43    1
@<TRIPOS>MOLECULE
*****
 43 45 0 0 0
SMALL
GASTEIGER

@<TRIPOS>ATOM
      1 BR          1.8274    3.5577    0.9296 Br      1  LIG1       -0.0503
      2 BR          8.6319   -5.9111    3.2559 Br      1  LIG1       -0.0472
      3 S           7.8500    3.4910   -3.4967 S.O2    1  LIG1        0.1079
      4 O           6.5713   -1.2439   -0.3624 O.3     1  LIG1       -0.4724
      5 O           6.5424    4.0630   -2.7108 O.2     1  LIG1       -0.1383
      6 O           8.2469    4.0563   -3.7622 O.2     1  LIG1       -0.1383
      7 O           4.5792   -1.9687    2.2367 O.3     1  LIG1       -0.4590
      8 N           6.9800    1.9322   -3.4348 N.3     1  LIG1       -0.1906
      9 N           8.0832    3.0861   -1.4339 N.pl3   1  LIG1       -0.1891
     10 N           9.8067    1.2165   -1.7031 N.ar    1  LIG1       -0.2186
     11 N           8.6195   -0.9018   -0.8207 N.ar    1  LIG1       -0.2008
     12 N           6.4661   -3.1327    1.6553 N.ar    1  LIG1       -0.2022
     13 N           5.4677   -3.4925    3.6646 N.ar    1  LIG1       -0.2022
     14 C           7.0573    0.9433   -0.5679 C.ar    1  LIG1        0.0848
     15 C           8.6399    1.6815   -1.2301 C.ar    1  LIG1        0.1532
     16 C           5.7454    1.5034   -0.1457 C.ar    1  LIG1       -0.0094
     17 C           7.4487   -0.3832   -0.3929 C.ar    1  LIG1        0.2276
     18 C           4.7855    1.3288    0.5339 C.ar    1  LIG1       -0.0527
     19 C           5.4045    2.2464   -0.4088 C.ar    1  LIG1       -0.0527
     20 C           5.1783   -0.9431    0.0866 C.3     1  LIG1        0.1252
     21 C           2.9487    1.2628    0.9223 C.ar    1  LIG1       -0.0472
     22 C           4.1822    3.3947    0.6002 C.ar    1  LIG1       -0.0472
     23 C           9.4404   -0.0733   -1.4673 C.ar    1  LIG1        0.1219
     24 C           4.2954   -1.9454    0.8364 C.3     1  LIG1        0.1267
     25 C           3.2567    2.8624    0.7323 C.ar    1  LIG1        0.0179
     26 C           5.5438   -2.8815    2.5961 C.ar    1  LIG1        0.3180
     27 C           7.3915   -4.0672    2.5639 C.ar    1  LIG1        0.0483
     28 C           6.4116   -4.4257    4.0426 C.ar    1  LIG1        0.0483
     29 C           7.4085   -4.7547    3.2485 C.ar    1  LIG1        0.0543
     30 H           7.8741    1.9634   -3.5878 H       1  LIG1        0.1456
     31 H           5.8570    2.5604   -4.5786 H       1  LIG1        0.1456
     32 H           8.2704    3.7510   -0.7816 H       1  LIG1        0.1763
     33 H           4.3980   -0.2573    1.3516 H       1  LIG1        0.0624
     34 H           5.4755    3.4428   -0.3178 H       1  LIG1        0.0624
     35 H           4.9286   -1.5719   -0.9535 H       1  LIG1        0.0731
     36 H           5.6014    0.0287   -0.1021 H       1  LIG1        0.0731
     37 H           2.8562    0.6668    1.4022 H       1  LIG1        0.0629
     38 H           3.9703    4.3871   -0.1876 H       1  LIG1        0.0629
     39 H          10.3306   -0.4640   -1.8137 H       1  LIG1        0.1049
     40 H           3.2699   -2.2739    0.8365 H       1  LIG1        0.0732
     41 H           4.4959   -2.9201    0.4432 H       1  LIG1        0.0732
     42 H           8.1250   -4.2763    1.2687 H       1  LIG1        0.0843
     43 H           6.3830   -4.9180    4.9491 H       1  LIG1        0.0843
@<TRIPOS>BOND
     1     1    25    1
     2     2    29    1
     3     3     9    1
     4     3     8    1
     5     3     6    2
     6     3     5    2
     7     4    17    1
     8     4    20    1
     9     7    24    1
    10     7    26    1
    11     9    15    1
    12    10    15   ar
    13    10    23   ar
    14    11    17   ar
    15    11    23   ar
    16    12    26   ar
    17    12    27   ar
    18    13    26   ar
    19    13    28   ar
    20    14    15   ar
    21    14    17   ar
    22    16    18   ar
    23    16    19   ar
    24    16    14    1
    25    18    21   ar
    26    19    22   ar
    27    20    24    1
    28    21    25   ar
    29    22    25   ar
    30    27    29   ar
    31    28    29   ar
    32     8    30    1
    33     8    31    1
    34     9    32    1
    35    18    33    1
    36    19    34    1
    37    20    35    1
    38    20    36    1
    39    21    37    1
    40    22    38    1
    41    23    39    1
    42    24    40    1
    43    24    41    1
    44    27    42    1
    45    28    43    1
@<TRIPOS>MOLECULE
*****
 43 45 0 0 0
SMALL
GASTEIGER

@<TRIPOS>ATOM
      1 BR          1.8914    3.5694    0.9036 Br      1  LIG1       -0.0503
      2 BR          6.2347   -7.1456   -1.1467 Br      1  LIG1       -0.0472
      3 S           7.2500    3.4910   -2.8967 S.O2    1  LIG1        0.1079
      4 O           6.5713   -1.2439    0.2376 O.3     1  LIG1       -0.4724
      5 O           8.6460    4.5087   -3.6115 O.2     1  LIG1       -0.1383
      6 O           6.6989    2.7048   -3.5028 O.2     1  LIG1       -0.1383
      7 O           5.5414   -2.7496    2.5097 O.3     1  LIG1       -0.4590
      8 N           5.9851    4.3546   -2.2756 N.3     1  LIG1       -0.1906
      9 N           8.0601    3.0861   -1.4339 N.pl3   1  LIG1       -0.1891
     10 N           9.8067    1.2165   -1.7031 N.ar    1  LIG1       -0.2186
     11 N           8.0195   -0.9018   -0.8207 N.ar    1  LIG1       -0.2008
     12 N           5.3250   -3.5132    0.3829 N.ar    1  LIG1       -0.2022
     13 N           5.9318   -5.0588    2.1989 N.ar    1  LIG1       -0.2022
     14 C           7.0573    0.9433   -0.5679 C.ar    1  LIG1        0.0848
     15 C           8.6399    1.6815   -1.2301 C.ar    1  LIG1        0.1532
     16 C           5.7454    1.5034   -0.1457 C.ar    1  LIG1       -0.0094
     17 C           7.4487   -0.3832   -0.3929 C.ar    1  LIG1        0.2276
     18 C           4.7855    0.7288   -0.0661 C.ar    1  LIG1       -0.0527
     19 C           5.4045    2.8464   -0.4088 C.ar    1  LIG1       -0.0527
     20 C           6.3235   -0.6586    1.2338 C.3     1  LIG1        0.1252
     21 C           2.9487    1.2628    0.9223 C.ar    1  LIG1       -0.0472
     22 C           3.9764    3.3947    0.0002 C.ar    1  LIG1       -0.0472
     23 C           9.4404   -0.0733   -1.4673 C.ar    1  LIG1        0.1219
     24 C           4.8045   -1.6989    1.8813 C.3     1  LIG1        0.1267
     25 C           3.2567    2.8001    0.7878 C.ar    1  LIG1        0.0179
     26 C           5.2064   -3.8176    1.6838 C.ar    1  LIG1        0.3180
     27 C           6.1296   -4.5528   -0.4551 C.ar    1  LIG1        0.0483
     28 C           6.3837   -6.0607    1.3142 C.ar    1  LIG1        0.0483
     29 C           6.3342   -5.8613   -0.0386 C.ar    1  LIG1        0.0543
     30 H           5.3515    3.7262   -2.3523 H       1  LIG1        0.1456
     31 H           5.4362    5.3790   -3.6402 H       1  LIG1        0.1456
     32 H           8.2704    3.7510   -0.7816 H       1  LIG1        0.1763
     33 H           4.3980   -0.2573    0.1516 H       1  LIG1        0.0624
     34 H           6.0755    3.4428   -0.3178 H       1  LIG1        0.0624
     35 H           5.7214    0.0978    1.3752 H       1  LIG1        0.0731
     36 H           6.3464   -0.2433    1.9983 H       1  LIG1        0.0731
     37 H           2.8562    0.6668    1.4022 H       1  LIG1        0.0629
     38 H           3.9703    4.3871   -0.1876 H       1  LIG1        0.0629
     39 H          10.3306   -0.4640   -1.8137 H       1  LIG1        0.1049
     40 H           4.1991   -1.2136    2.6181 H       1  LIG1        0.0732
     41 H           4.2035   -2.1334    1.1101 H       1  LIG1        0.0732
     42 H           6.2393   -4.3543   -1.4619 H       1  LIG1        0.0843
     43 H           5.9209   -7.0274    1.6728 H       1  LIG1        0.0843
@<TRIPOS>BOND
     1     1    25    1
     2     2    29    1
     3     3     9    1
     4     3     8    1
     5     3     6    2
     6     3     5    2
     7     4    17    1
     8     4    20    1
     9     7    24    1
    10     7    26    1
    11     9    15    1
    12    10    15   ar
    13    10    23   ar
    14    11    17   ar
    15    11    23   ar
    16    12    26   ar
    17    12    27   ar
    18    13    26   ar
    19    13    28   ar
    20    14    15   ar
    21    14    17   ar
    22    16    18   ar
    23    16    19   ar
    24    16    14    1
    25    18    21   ar
    26    19    22   ar
    27    20    24    1
    28    21    25   ar
    29    22    25   ar
    30    27    29   ar
    31    28    29   ar
    32     8    30    1
    33     8    31    1
    34     9    32    1
    35    18    33    1
    36    19    34    1
    37    20    35    1
    38    20    36    1
    39    21    37    1
    40    22    38    1
    41    23    39    1
    42    24    40    1
    43    24    41    1
    44    27    42    1
    45    28    43    1
@<TRIPOS>MOLECULE
*****
 43 45 0 0 0
SMALL
GASTEIGER

@<TRIPOS>ATOM
      1 BR          1.8911    3.5689    0.9042 Br      1  LIG1       -0.0503
      2 BR          4.3934   -7.9635    0.3316 Br      1  LIG1       -0.0472
      3 S           7.2500    3.4910   -2.8967 S.O2    1  LIG1        0.1079
      4 O           6.5713   -1.2439    0.2376 O.3     1  LIG1       -0.4724
      5 O           8.6460    4.5152   -3.6115 O.2     1  LIG1       -0.1383
      6 O           6.6989    2.7197   -3.5028 O.2     1  LIG1       -0.1383
      7 O           5.5414   -2.7496    2.5097 O.3     1  LIG1       -0.4590
      8 N           5.9807    4.3546   -2.2756 N.3     1  LIG1       -0.1906
      9 N           8.0503    3.0861   -1.4339 N.pl3   1  LIG1       -0.1891
     10 N           9.8067    1.2165   -1.7031 N.ar    1  LIG1       -0.2186
     11 N           8.0195   -0.9018   -0.8207 N.ar    1  LIG1       -0.2008
     12 N           5.4111   -4.0222    0.7064 N.ar    1  LIG1       -0.2022
     13 N           5.3190   -5.0710    2.8123 N.ar    1  LIG1       -0.2022
     14 C           7.0573    0.9433   -0.5679 C.ar    1  LIG1        0.0848
     15 C           8.6399    1.6815   -1.2301 C.ar    1  LIG1        0.1532
     16 C           5.7454    1.5034   -0.1457 C.ar    1  LIG1       -0.0094
     17 C           7.4487   -0.3832   -0.3929 C.ar    1  LIG1        0.2276
     18 C           4.7855    0.7288   -0.0661 C.ar    1  LIG1       -0.0527
     19 C           5.4045    2.8464   -0.4088 C.ar    1  LIG1       -0.0527
     20 C           6.3235   -0.6586    1.2338 C.3     1  LIG1        0.1252
     21 C           2.9487    1.2628    0.9223 C.ar    1  LIG1       -0.0472
     22 C           3.9769    3.3947    0.0002 C.ar    1  LIG1       -0.0472
     23 C           9.4404   -0.0733   -1.4673 C.ar    1  LIG1        0.1219
     24 C           4.8045   -1.6989    1.8813 C.3     1  LIG1        0.1267
     25 C           3.2567    2.8008    0.7873 C.ar    1  LIG1        0.0179
     26 C           5.2767   -3.9999    2.0001 C.ar    1  LIG1        0.3180
     27 C           4.6039   -5.2324    0.1978 C.ar    1  LIG1        0.0483
     28 C           4.3793   -6.2531    2.2538 C.ar    1  LIG1        0.0483
     29 C           5.2113   -6.3922    0.9361 C.ar    1  LIG1        0.0543
     30 H           5.3515    3.7262   -2.3523 H       1  LIG1        0.1456
     31 H           5.4362    5.3790   -3.6402 H       1  LIG1        0.1456
     32 H           8.2704    3.7510   -0.7816 H       1  LIG1        0.1763
     33 H           4.3980   -0.2573    0.1516 H       1  LIG1        0.0624
     34 H           6.0755    3.4428   -0.3178 H       1  LIG1        0.0624
     35 H           5.7214    0.0978    1.3752 H       1  LIG1        0.0731
     36 H           6.3464   -0.2433    1.9983 H       1  LIG1        0.0731
     37 H           2.8562    0.6668    1.4022 H       1  LIG1        0.0629
     38 H           3.9703    4.3871   -0.1876 H       1  LIG1        0.0629
     39 H          10.3306   -0.4640   -1.8137 H       1  LIG1        0.1049
     40 H           4.1991   -1.2136    2.6181 H       1  LIG1        0.0732
     41 H           4.2035   -2.1334    1.1101 H       1  LIG1        0.0732
     42 H           4.3404   -5.2893   -0.7983 H       1  LIG1        0.0843
     43 H           4.9970   -7.0969    2.8476 H       1  LIG1        0.0843
@<TRIPOS>BOND
     1     1    25    1
     2     2    29    1
     3     3     9    1
     4     3     8    1
     5     3     6    2
     6     3     5    2
     7     4    17    1
     8     4    20    1
     9     7    24    1
    10     7    26    1
    11     9    15    1
    12    10    15   ar
    13    10    23   ar
    14    11    17   ar
    15    11    23   ar
    16    12    26   ar
    17    12    27   ar
    18    13    26   ar
    19    13    28   ar
    20    14    15   ar
    21    14    17   ar
    22    16    18   ar
    23    16    19   ar
    24    16    14    1
    25    18    21   ar
    26    19    22   ar
    27    20    24    1
    28    21    25   ar
    29    22    25   ar
    30    27    29   ar
    31    28    29   ar
    32     8    30    1
    33     8    31    1
    34     9    32    1
    35    18    33    1
    36    19    34    1
    37    20    35    1
    38    20    36    1
    39    21    37    1
    40    22    38    1
    41    23    39    1
    42    24    40    1
    43    24    41    1
    44    27    42    1
    45    28    43    1
@<TRIPOS>MOLECULE
*****
 43 45 0 0 0
SMALL
GASTEIGER

@<TRIPOS>ATOM
      1 BR          1.5732    3.1515    1.4674 Br      1  LIG1       -0.0503
      2 BR          1.1416   -1.1212    5.0053 Br      1  LIG1       -0.0472
      3 S           7.0698    3.2624   -3.0744 S.O2    1  LIG1        0.1079
      4 O           6.6609   -1.1713    0.3877 O.3     1  LIG1       -0.4724
      5 O           8.0589    3.7381   -4.0060 O.2     1  LIG1       -0.1383
      6 O           6.1714    2.1743   -3.3563 O.2     1  LIG1       -0.1383
      7 O           4.4506   -3.0583    0.4550 O.3     1  LIG1       -0.4590
      8 N           6.0919    4.5691   -2.7186 N.3     1  LIG1       -0.1906
      9 N           7.7789    3.1116   -1.5703 N.pl3   1  LIG1       -0.1891
     10 N           9.2082    1.3457   -1.5879 N.ar    1  LIG1       -0.2186
     11 N           8.6619   -0.7988   -0.7349 N.ar    1  LIG1       -0.2008
     12 N           2.3986   -2.7397    1.4126 N.ar    1  LIG1       -0.2022
     13 N           4.3606   -2.0679    2.5897 N.ar    1  LIG1       -0.2022
     14 C           7.0374    0.9983   -0.5215 C.ar    1  LIG1        0.0848
     15 C           7.9977    1.7636   -1.1808 C.ar    1  LIG1        0.1532
     16 C           5.7297    1.5204   -0.0567 C.ar    1  LIG1       -0.0094
     17 C           7.4632   -0.3125   -0.3403 C.ar    1  LIG1        0.2276
     18 C           4.5390    0.7923   -0.2442 C.ar    1  LIG1       -0.0527
     19 C           5.6224    2.7644    0.5958 C.ar    1  LIG1       -0.0527
     20 C           6.7566   -2.5260   -0.0671 C.3     1  LIG1        0.1252
     21 C           3.3054    1.2692    0.2134 C.ar    1  LIG1       -0.0472
     22 C           4.3886    3.2583    1.0359 C.ar    1  LIG1       -0.0472
     23 C           9.4772    0.0641   -1.3447 C.ar    1  LIG1        0.1219
     24 C           5.8065   -3.4044    0.7438 C.3     1  LIG1        0.1267
     25 C           3.2362    2.5025    0.8497 C.ar    1  LIG1        0.0179
     26 C           3.7293   -2.6158    1.5384 C.ar    1  LIG1        0.3180
     27 C           1.6598   -2.2949    2.4518 C.ar    1  LIG1        0.0483
     28 C           3.5730   -1.6306    3.5951 C.ar    1  LIG1        0.0483
     29 C           2.2016   -1.7253    3.5800 C.ar    1  LIG1        0.0543
     30 H           5.3010    4.2382   -2.1636 H       1  LIG1        0.1456
     31 H           5.7671    4.9831   -3.5934 H       1  LIG1        0.1456
     32 H           8.6832    3.5792   -1.6374 H       1  LIG1        0.1763
     33 H           4.5553   -0.1724   -0.7497 H       1  LIG1        0.0624
     34 H           6.5088    3.3704    0.7777 H       1  LIG1        0.0624
     35 H           7.7740   -2.9098    0.0724 H       1  LIG1        0.0731
     36 H           6.4807   -2.5700   -1.1284 H       1  LIG1        0.0731
     37 H           2.4141    0.6642    0.0666 H       1  LIG1        0.0629
     38 H           4.3450    4.2257    1.5297 H       1  LIG1        0.0629
     39 H          10.4419   -0.3114   -1.6677 H       1  LIG1        0.1049
     40 H           5.9353   -4.4449    0.4239 H       1  LIG1        0.0732
     41 H           6.0669   -3.3720    1.8077 H       1  LIG1        0.0732
     42 H           0.5872   -2.4205    2.3361 H       1  LIG1        0.0843
     43 H           4.1052   -1.1931    4.4345 H       1  LIG1        0.0843
@<TRIPOS>BOND
     1     1    25    1
     2     2    29    1
     3     3     9    1
     4     3     8    1
     5     3     6    2
     6     3     5    2
     7     4    17    1
     8     4    20    1
     9     7    24    1
    10     7    26    1
    11     9    15    1
    12    10    15   ar
    13    10    23   ar
    14    11    17   ar
    15    11    23   ar
    16    12    26   ar
    17    12    27   ar
    18    13    26   ar
    19    13    28   ar
    20    14    15   ar
    21    14    17   ar
    22    16    18   ar
    23    16    19   ar
    24    16    14    1
    25    18    21   ar
    26    19    22   ar
    27    20    24    1
    28    21    25   ar
    29    22    25   ar
    30    27    29   ar
    31    28    29   ar
    32     8    30    1
    33     8    31    1
    34     9    32    1
    35    18    33    1
    36    19    34    1
    37    20    35    1
    38    20    36    1
    39    21    37    1
    40    22    38    1
    41    23    39    1
    42    24    40    1
    43    24    41    1
    44    27    42    1
    45    28    43    1
@<TRIPOS>MOLECULE
*****
 43 45 0 0 0
SMALL
GASTEIGER

@<TRIPOS>ATOM
      1 BR          1.8282    3.5577    0.9307 Br      1  LIG1       -0.0503
      2 BR         10.0599   -3.2226    3.5996 Br      1  LIG1       -0.0472
      3 S           7.8500    3.4910   -3.4967 S.O2    1  LIG1        0.1079
      4 O           6.5713   -0.6439    0.2376 O.3     1  LIG1       -0.4724
      5 O           6.5424    4.0630   -2.7108 O.2     1  LIG1       -0.1383
      6 O           8.2469    4.0563   -3.7622 O.2     1  LIG1       -0.1383
      7 O           4.5792   -2.3621    2.2367 O.3     1  LIG1       -0.4590
      8 N           6.9800    1.9322   -3.4348 N.3     1  LIG1       -0.1906
      9 N           8.1329    3.0861   -1.4339 N.pl3   1  LIG1       -0.1891
     10 N           9.8067    1.2165   -1.7031 N.ar    1  LIG1       -0.2186
     11 N           8.0195   -0.9018   -0.8207 N.ar    1  LIG1       -0.2008
     12 N           6.4919   -2.9651    3.7106 N.ar    1  LIG1       -0.2022
     13 N           6.8710   -1.9806    1.7098 N.ar    1  LIG1       -0.2022
     14 C           7.0573    1.5433   -0.5679 C.ar    1  LIG1        0.0848
     15 C           8.6399    1.6815   -1.2301 C.ar    1  LIG1        0.1532
     16 C           5.7454    1.5034   -0.1457 C.ar    1  LIG1       -0.0094
     17 C           7.4487   -0.3832   -0.3929 C.ar    1  LIG1        0.2276
     18 C           4.7855    1.3288    0.5339 C.ar    1  LIG1       -0.0527
     19 C           5.4045    2.2464   -0.4088 C.ar    1  LIG1       -0.0527
     20 C           5.1783   -1.5431   -0.5134 C.3     1  LIG1        0.1252
     21 C           2.9487    1.2628    0.9223 C.ar    1  LIG1       -0.0472
     22 C           4.1822    3.3947    0.6002 C.ar    1  LIG1       -0.0472
     23 C           9.4404   -0.0733   -1.4673 C.ar    1  LIG1        0.1219
     24 C           4.2954   -2.5454    0.8364 C.3     1  LIG1        0.1267
     25 C           3.2567    2.8572    0.7322 C.ar    1  LIG1        0.0179
     26 C           5.8716   -2.3309    2.5389 C.ar    1  LIG1        0.3180
     27 C           7.2911   -3.2818    4.0557 C.ar    1  LIG1        0.0483
     28 C           8.1178   -2.3118    2.1101 C.ar    1  LIG1        0.0483
     29 C           8.3873   -2.9715    3.2862 C.ar    1  LIG1        0.0543
     30 H           7.8741    1.9640   -3.5878 H       1  LIG1        0.1456
     31 H           5.8570    2.5604   -4.5761 H       1  LIG1        0.1456
     32 H           8.2704    3.7510   -0.7816 H       1  LIG1        0.1763
     33 H           4.3980   -0.2573    1.3516 H       1  LIG1        0.0624
     34 H           5.4755    3.4428   -0.3178 H       1  LIG1        0.0624
     35 H           4.9286   -1.5719   -0.9535 H       1  LIG1        0.0731
     36 H           5.6014    0.0287   -0.1021 H       1  LIG1        0.0731
     37 H           2.8562    0.6668    1.4022 H       1  LIG1        0.0629
     38 H           3.9703    4.3871   -0.1876 H       1  LIG1        0.0629
     39 H          10.3306   -0.4640   -1.8137 H       1  LIG1        0.1049
     40 H           3.2699   -2.2739    0.8498 H       1  LIG1        0.0732
     41 H           4.4959   -2.9201    0.4432 H       1  LIG1        0.0732
     42 H           7.4445   -3.7832    4.9445 H       1  LIG1        0.0843
     43 H           8.9105   -2.0560    1.5008 H       1  LIG1        0.0843
@<TRIPOS>BOND
     1     1    25    1
     2     2    29    1
     3     3     9    1
     4     3     8    1
     5     3     6    2
     6     3     5    2
     7     4    17    1
     8     4    20    1
     9     7    24    1
    10     7    26    1
    11     9    15    1
    12    10    15   ar
    13    10    23   ar
    14    11    17   ar
    15    11    23   ar
    16    12    26   ar
    17    12    27   ar
    18    13    26   ar
    19    13    28   ar
    20    14    15   ar
    21    14    17   ar
    22    16    18   ar
    23    16    19   ar
    24    16    14    1
    25    18    21   ar
    26    19    22   ar
    27    20    24    1
    28    21    25   ar
    29    22    25   ar
    30    27    29   ar
    31    28    29   ar
    32     8    30    1
    33     8    31    1
    34     9    32    1
    35    18    33    1
    36    19    34    1
    37    20    35    1
    38    20    36    1
    39    21    37    1
    40    22    38    1
    41    23    39    1
    42    24    40    1
    43    24    41    1
    44    27    42    1
    45    28    43    1
@<TRIPOS>MOLECULE
*****
 43 45 0 0 0
SMALL
GASTEIGER

@<TRIPOS>ATOM
      1 BR          1.8268    3.5665    0.9004 Br      1  LIG1       -0.0503
      2 BR         10.0579   -3.5858    3.1768 Br      1  LIG1       -0.0472
      3 S           7.8500    3.4910   -3.4967 S.O2    1  LIG1        0.1079
      4 O           6.5713   -1.2439   -0.3624 O.3     1  LIG1       -0.4724
      5 O           6.5424    4.0630   -2.7108 O.2     1  LIG1       -0.1383
      6 O           8.2469    4.0563   -3.7622 O.2     1  LIG1       -0.1383
      7 O           4.5792   -1.9687    2.2367 O.3     1  LIG1       -0.4590
      8 N           6.9800    1.9322   -3.4348 N.3     1  LIG1       -0.1906
      9 N           7.9516    3.0861   -1.4339 N.pl3   1  LIG1       -0.1891
     10 N           9.8067    1.2165   -1.7031 N.ar    1  LIG1       -0.2186
     11 N           8.6195   -0.9018   -0.8207 N.ar    1  LIG1       -0.2008
     12 N           6.4487   -3.7619    1.6583 N.ar    1  LIG1       -0.2022
     13 N           6.4306   -1.9040    3.6852 N.ar    1  LIG1       -0.2022
     14 C           7.0573    0.9433   -0.5679 C.ar    1  LIG1        0.0848
     15 C           8.6399    1.6815   -1.2301 C.ar    1  LIG1        0.1532
     16 C           5.7454    1.5034   -0.1457 C.ar    1  LIG1       -0.0094
     17 C           7.4487   -0.3832   -0.3929 C.ar    1  LIG1        0.2276
     18 C           5.3923    2.2450   -0.3879 C.ar    1  LIG1       -0.0527
     19 C           4.1901    1.3073    1.1196 C.ar    1  LIG1       -0.0527
     20 C           5.1783   -0.9431   -0.5134 C.3     1  LIG1        0.1252
     21 C           4.1563    3.3666    0.6194 C.ar    1  LIG1       -0.0472
     22 C           2.9423    1.2137    0.9052 C.ar    1  LIG1       -0.0472
     23 C           9.4404   -0.0733   -1.4673 C.ar    1  LIG1        0.1219
     24 C           4.2954   -1.9454    0.8364 C.3     1  LIG1        0.1267
     25 C           3.2343    2.7207    0.6525 C.ar    1  LIG1        0.0179
     26 C           5.8716   -2.3309    2.5389 C.ar    1  LIG1        0.3180
     27 C           7.6980   -3.5765    1.9621 C.ar    1  LIG1        0.0483
     28 C           7.6760   -2.3586    3.9435 C.ar    1  LIG1        0.0483
     29 C           8.3641   -2.6048    3.1534 C.ar    1  LIG1        0.0543
     30 H           7.8741    1.9756   -3.5878 H       1  LIG1        0.1456
     31 H           5.8570    2.5604   -4.5879 H       1  LIG1        0.1456
     32 H           8.2704    3.7510   -0.7816 H       1  LIG1        0.1763
     33 H           5.4606    3.4600   -0.2779 H       1  LIG1        0.0624
     34 H           5.0171   -0.2775    1.3286 H       1  LIG1        0.0624
     35 H           4.9286   -1.5719   -0.9535 H       1  LIG1        0.0731
     36 H           5.0014    0.0287   -0.1021 H       1  LIG1        0.0731
     37 H           3.9315    4.3588   -0.1543 H       1  LIG1        0.0629
     38 H           2.8553    0.6006    1.3712 H       1  LIG1        0.0629
     39 H          10.3306   -0.4640   -1.8137 H       1  LIG1        0.1049
     40 H           3.2699   -2.2739    0.8400 H       1  LIG1        0.0732
     41 H           4.4959   -2.9201    0.4432 H       1  LIG1        0.0732
     42 H           8.1782   -4.2059    1.3001 H       1  LIG1        0.0843
     43 H           8.1357   -2.0546    4.8161 H       1  LIG1        0.0843
@<TRIPOS>BOND
     1     1    25    1
     2     2    29    1
     3     3     9    1
     4     3     8    1
     5     3     6    2
     6     3     5    2
     7     4    17    1
     8     4    20    1
     9     7    24    1
    10     7    26    1
    11     9    15    1
    12    10    15   ar
    13    10    23   ar
    14    11    17   ar
    15    11    23   ar
    16    12    26   ar
    17    12    27   ar
    18    13    26   ar
    19    13    28   ar
    20    14    15   ar
    21    14    17   ar
    22    16    18   ar
    23    16    19   ar
    24    16    14    1
    25    18    21   ar
    26    19    22   ar
    27    20    24    1
    28    21    25   ar
    29    22    25   ar
    30    27    29   ar
    31    28    29   ar
    32     8    30    1
    33     8    31    1
    34     9    32    1
    35    18    33    1
    36    19    34    1
    37    20    35    1
    38    20    36    1
    39    21    37    1
    40    22    38    1
    41    23    39    1
    42    24    40    1
    43    24    41    1
    44    27    42    1
    45    28    43    1
@<TRIPOS>MOLECULE
*****
 43 45 0 0 0
SMALL
GASTEIGER

@<TRIPOS>ATOM
      1 BR          1.8483    3.5608    0.9086 Br      1  LIG1       -0.0503
      2 BR          8.9005    1.4959    3.3198 Br      1  LIG1       -0.0472
      3 S           7.8500    3.4910   -3.4967 S.O2    1  LIG1        0.1079
      4 O           6.5713   -1.2439   -0.3624 O.3     1  LIG1       -0.4724
      5 O           6.5424    4.0630   -2.7108 O.2     1  LIG1       -0.1383
      6 O           8.2469    4.0563   -3.7622 O.2     1  LIG1       -0.1383
      7 O           4.5792   -1.9687    2.2367 O.3     1  LIG1       -0.4590
      8 N           6.9800    1.9322   -3.4348 N.3     1  LIG1       -0.1906
      9 N           7.9516    3.0861   -1.4339 N.pl3   1  LIG1       -0.1891
     10 N           9.8067    1.2165   -1.7031 N.ar    1  LIG1       -0.2186
     11 N           8.6195   -0.9018   -0.8207 N.ar    1  LIG1       -0.2008
     12 N           6.5041   -0.8532    1.6855 N.ar    1  LIG1       -0.2022
     13 N           5.5902   -0.6205    4.0683 N.ar    1  LIG1       -0.2022
     14 C           7.0573    0.9433   -0.5679 C.ar    1  LIG1        0.0848
     15 C           8.6399    1.6815   -1.2301 C.ar    1  LIG1        0.1532
     16 C           5.7454    1.5034   -0.1457 C.ar    1  LIG1       -0.0094
     17 C           7.4487   -0.3832   -0.3929 C.ar    1  LIG1        0.2276
     18 C           5.3923    2.2450   -0.3879 C.ar    1  LIG1       -0.0527
     19 C           4.1901    1.3073    1.1196 C.ar    1  LIG1       -0.0527
     20 C           5.1783   -0.9431   -0.5134 C.3     1  LIG1        0.1252
     21 C           4.1563    3.3666    0.6194 C.ar    1  LIG1       -0.0472
     22 C           2.9423    1.2137    0.9052 C.ar    1  LIG1       -0.0472
     23 C           9.4404   -0.0733   -1.4673 C.ar    1  LIG1        0.1219
     24 C           4.2954   -2.5454    0.8364 C.3     1  LIG1        0.1267
     25 C           3.2343    2.6926    0.1716 C.ar    1  LIG1        0.0179
     26 C           5.5735   -1.6984    2.6198 C.ar    1  LIG1        0.3180
     27 C           7.5213    0.5545    2.0568 C.ar    1  LIG1        0.0483
     28 C           6.6360   -0.4276    4.1965 C.ar    1  LIG1        0.0483
     29 C           7.6398    0.4971    3.4813 C.ar    1  LIG1        0.0543
     30 H           7.8741    1.9429   -3.5878 H       1  LIG1        0.1456
     31 H           5.8570    2.5604   -4.6029 H       1  LIG1        0.1456
     32 H           8.2704    3.7510   -0.7816 H       1  LIG1        0.1763
     33 H           5.4606    3.4600   -0.2779 H       1  LIG1        0.0624
     34 H           5.0171   -0.2775    1.3286 H       1  LIG1        0.0624
     35 H           4.9286   -1.5719   -0.9535 H       1  LIG1        0.0731
     36 H           5.0014    0.0287   -0.1021 H       1  LIG1        0.0731
     37 H           3.9315    4.3588   -0.1543 H       1  LIG1        0.0629
     38 H           2.8553    0.6006    1.3712 H       1  LIG1        0.0629
     39 H          10.3306   -0.4640   -1.8137 H       1  LIG1        0.1049
     40 H           3.2699   -2.2739    0.7811 H       1  LIG1        0.0732
     41 H           4.5800   -2.9201    0.4432 H       1  LIG1        0.0732
     42 H           8.2486    0.1761    1.9588 H       1  LIG1        0.0843
     43 H           6.6842    0.5551    5.1537 H       1  LIG1        0.0843
@<TRIPOS>BOND
     1     1    25    1
     2     2    29    1
     3     3     9    1
     4     3     8    1
     5     3     6    2
     6     3     5    2
     7     4    17    1
     8     4    20    1
     9     7    24    1
    10     7    26    1
    11     9    15    1
    12    10    15   ar
    13    10    23   ar
    14    11    17   ar
    15    11    23   ar
    16    12    26   ar
    17    12    27   ar
    18    13    26   ar
    19    13    28   ar
    20    14    15   ar
    21    14    17   ar
    22    16    18   ar
    23    16    19   ar
    24    16    14    1
    25    18    21   ar
    26    19    22   ar
    27    20    24    1
    28    21    25   ar
    29    22    25   ar
    30    27    29   ar
    31    28    29   ar
    32     8    30    1
    33     8    31    1
    34     9    32    1
    35    18    33    1
    36    19    34    1
    37    20    35    1
    38    20    36    1
    39    21    37    1
    40    22    38    1
    41    23    39    1
    42    24    40    1
    43    24    41    1
    44    27    42    1
    45    28    43    1
@<TRIPOS>MOLECULE
*****
 43 45 0 0 0
SMALL
GASTEIGER

@<TRIPOS>ATOM
      1 BR          1.8467    2.9523    0.9019 Br      1  LIG1       -0.0503
      2 BR          7.6947   -6.0549   -1.0063 Br      1  LIG1       -0.0472
      3 S           7.8500    3.4910   -3.4967 S.O2    1  LIG1        0.1079
      4 O           6.5713   -1.2439    0.2376 O.3     1  LIG1       -0.4724
      5 O           6.5424    4.0630   -2.7108 O.2     1  LIG1       -0.1383
      6 O           8.2469    4.0563   -3.7622 O.2     1  LIG1       -0.1383
      7 O           5.2804   -1.6322   -2.3660 O.3     1  LIG1       -0.4590
      8 N           6.9800    1.9322   -3.4348 N.3     1  LIG1       -0.1906
      9 N           7.9516    3.0861   -1.4339 N.pl3   1  LIG1       -0.1891
     10 N           9.8067    1.2165   -1.7031 N.ar    1  LIG1       -0.2186
     11 N           8.6195   -0.9018   -0.2207 N.ar    1  LIG1       -0.2008
     12 N           6.4727   -2.8724   -0.8515 N.ar    1  LIG1       -0.2022
     13 N           5.7508   -3.2754   -2.8921 N.ar    1  LIG1       -0.2022
     14 C           7.0573    1.5433    0.0321 C.ar    1  LIG1        0.0848
     15 C           8.6399    1.6815   -1.2301 C.ar    1  LIG1        0.1532
     16 C           5.7454    1.5034    0.4543 C.ar    1  LIG1       -0.0094
     17 C           7.4487   -0.3832    0.2071 C.ar    1  LIG1        0.2276
     18 C           5.3923    2.2450   -0.3879 C.ar    1  LIG1       -0.0527
     19 C           4.7901    0.7073   -0.0804 C.ar    1  LIG1       -0.0527
     20 C           5.1783   -1.3876    0.0866 C.3     1  LIG1        0.1252
     21 C           4.1563    3.3666    0.6194 C.ar    1  LIG1       -0.0472
     22 C           3.4934    1.2137    0.9052 C.ar    1  LIG1       -0.0472
     23 C           9.4404   -0.0733   -1.4673 C.ar    1  LIG1        0.1219
     24 C           4.8891   -0.8399   -1.8431 C.3     1  LIG1        0.1267
     25 C           3.2343    2.7813    0.7964 C.ar    1  LIG1        0.0179
     26 C           5.8292   -2.2477   -2.6281 C.ar    1  LIG1        0.3180
     27 C           7.0682   -3.4398   -0.5235 C.ar    1  LIG1        0.0483
     28 C           6.3736   -4.4142   -2.5180 C.ar    1  LIG1        0.0483
     29 C           7.0530   -4.5528   -1.3305 C.ar    1  LIG1        0.0543
     30 H           7.8741    1.7429   -3.5878 H       1  LIG1        0.1456
     31 H           5.8570    1.7982   -4.5953 H       1  LIG1        0.1456
     32 H           8.2704    3.7510   -0.7816 H       1  LIG1        0.1763
     33 H           5.4606    3.4600   -0.2779 H       1  LIG1        0.0624
     34 H           5.0171    0.3225    0.7286 H       1  LIG1        0.0624
     35 H           4.8727   -0.9052    0.8894 H       1  LIG1        0.0731
     36 H           4.6356   -1.8652    0.1001 H       1  LIG1        0.0731
     37 H           3.9315    4.3588   -0.1543 H       1  LIG1        0.0629
     38 H           2.8553    0.6006    1.3712 H       1  LIG1        0.0629
     39 H          10.3306   -0.4640   -1.8137 H       1  LIG1        0.1049
     40 H           3.2393   -0.6434   -1.3084 H       1  LIG1        0.0732
     41 H           5.4558    0.6674   -1.8663 H       1  LIG1        0.0732
     42 H           7.5609   -3.4993    0.3813 H       1  LIG1        0.0843
     43 H           6.3375   -5.2233   -3.1574 H       1  LIG1        0.0843
@<TRIPOS>BOND
     1     1    25    1
     2     2    29    1
     3     3     9    1
     4     3     8    1
     5     3     6    2
     6     3     5    2
     7     4    17    1
     8     4    20    1
     9     7    24    1
    10     7    26    1
    11     9    15    1
    12    10    15   ar
    13    10    23   ar
    14    11    17   ar
    15    11    23   ar
    16    12    26   ar
    17    12    27   ar
    18    13    26   ar
    19    13    28   ar
    20    14    15   ar
    21    14    17   ar
    22    16    18   ar
    23    16    19   ar
    24    16    14    1
    25    18    21   ar
    26    19    22   ar
    27    20    24    1
    28    21    25   ar
    29    22    25   ar
    30    27    29   ar
    31    28    29   ar
    32     8    30    1
    33     8    31    1
    34     9    32    1
    35    18    33    1
    36    19    34    1
    37    20    35    1
    38    20    36    1
    39    21    37    1
    40    22    38    1
    41    23    39    1
    42    24    40    1
    43    24    41    1
    44    27    42    1
    45    28    43    1
@<TRIPOS>MOLECULE
*****
 43 45 0 0 0
SMALL
GASTEIGER

@<TRIPOS>ATOM
      1 BR          1.8465    2.9540    0.9020 Br      1  LIG1       -0.0503
      2 BR          7.5842   -6.0687   -0.8833 Br      1  LIG1       -0.0472
      3 S           7.8500    3.4910   -3.4967 S.O2    1  LIG1        0.1079
      4 O           6.5713   -0.6439    0.8376 O.3     1  LIG1       -0.4724
      5 O           6.5424    4.0630   -2.7108 O.2     1  LIG1       -0.1383
      6 O           8.2469    4.0563   -3.7622 O.2     1  LIG1       -0.1383
      7 O           5.2804   -1.6322   -2.3660 O.3     1  LIG1       -0.4590
      8 N           6.9800    1.9322   -3.4348 N.3     1  LIG1       -0.1906
      9 N           7.9516    3.0861   -1.4339 N.pl3   1  LIG1       -0.1891
     10 N           9.8067    1.2165   -1.7031 N.ar    1  LIG1       -0.2186
     11 N           8.6195   -0.9018   -0.8207 N.ar    1  LIG1       -0.2008
     12 N           6.5069   -3.0888   -0.7110 N.ar    1  LIG1       -0.2022
     13 N           6.2982   -3.0567   -3.5947 N.ar    1  LIG1       -0.2022
     14 C           7.0573    1.5433    0.0321 C.ar    1  LIG1        0.0848
     15 C           8.6399    1.6815   -1.2301 C.ar    1  LIG1        0.1532
     16 C           5.7454    1.5034    0.4543 C.ar    1  LIG1       -0.0094
     17 C           7.4487   -0.3832    0.2071 C.ar    1  LIG1        0.2276
     18 C           5.3923    2.2450   -0.3879 C.ar    1  LIG1       -0.0527
     19 C           4.7901    0.7073   -0.0804 C.ar    1  LIG1       -0.0527
     20 C           5.1783   -0.9431    0.0866 C.3     1  LIG1        0.1252
     21 C           4.1563    3.3666    0.6194 C.ar    1  LIG1       -0.0472
     22 C           3.4956    1.2137    0.9052 C.ar    1  LIG1       -0.0472
     23 C           9.4404   -0.0733   -1.4673 C.ar    1  LIG1        0.1219
     24 C           4.8891   -0.8399   -1.8431 C.3     1  LIG1        0.1267
     25 C           3.2343    2.7764    0.7965 C.ar    1  LIG1        0.0179
     26 C           5.8292   -2.2477   -2.0281 C.ar    1  LIG1        0.3180
     27 C           6.4934   -3.6518   -0.3526 C.ar    1  LIG1        0.0483
     28 C           6.8846   -4.2003   -2.5788 C.ar    1  LIG1        0.0483
     29 C           7.0088   -4.5518   -1.2552 C.ar    1  LIG1        0.0543
     30 H           7.8741    1.7235   -3.5878 H       1  LIG1        0.1456
     31 H           5.8570    1.7775   -4.6142 H       1  LIG1        0.1456
     32 H           8.2704    3.7510   -0.7816 H       1  LIG1        0.1763
     33 H           5.4606    3.4600   -0.2779 H       1  LIG1        0.0624
     34 H           5.0171    0.3225    0.7286 H       1  LIG1        0.0624
     35 H           4.8727   -0.9052    0.8894 H       1  LIG1        0.0731
     36 H           4.6356   -1.8652    0.1001 H       1  LIG1        0.0731
     37 H           3.9315    4.3588   -0.1543 H       1  LIG1        0.0629
     38 H           2.8553    0.6006    1.3712 H       1  LIG1        0.0629
     39 H          10.3306   -0.4640   -1.8137 H       1  LIG1        0.1049
     40 H           3.2393   -0.6434   -1.3084 H       1  LIG1        0.0732
     41 H           5.4558    0.6674   -1.8663 H       1  LIG1        0.0732
     42 H           6.7190   -3.8197    0.6525 H       1  LIG1        0.0843
     43 H           7.2595   -4.8446   -3.2925 H       1  LIG1        0.0843
@<TRIPOS>BOND
     1     1    25    1
     2     2    29    1
     3     3     9    1
     4     3     8    1
     5     3     6    2
     6     3     5    2
     7     4    17    1
     8     4    20    1
     9     7    24    1
    10     7    26    1
    11     9    15    1
    12    10    15   ar
    13    10    23   ar
    14    11    17   ar
    15    11    23   ar
    16    12    26   ar
    17    12    27   ar
    18    13    26   ar
    19    13    28   ar
    20    14    15   ar
    21    14    17   ar
    22    16    18   ar
    23    16    19   ar
    24    16    14    1
    25    18    21   ar
    26    19    22   ar
    27    20    24    1
    28    21    25   ar
    29    22    25   ar
    30    27    29   ar
    31    28    29   ar
    32     8    30    1
    33     8    31    1
    34     9    32    1
    35    18    33    1
    36    19    34    1
    37    20    35    1
    38    20    36    1
    39    21    37    1
    40    22    38    1
    41    23    39    1
    42    24    40    1
    43    24    41    1
    44    27    42    1
    45    28    43    1
@<TRIPOS>MOLECULE
*****
 43 45 0 0 0
SMALL
GASTEIGER

@<TRIPOS>ATOM
      1 BR          1.2719    3.5330    1.4740 Br      1  LIG1       -0.0503
      2 BR          8.0533   -4.9654   -3.0712 Br      1  LIG1       -0.0472
      3 S           8.5549    3.9716   -0.1502 S.O2    1  LIG1        0.1079
      4 O           6.5714   -1.2439    0.8377 O.3     1  LIG1       -0.4724
      5 O           9.7888    4.6258   -1.0981 O.2     1  LIG1       -0.1383
      6 O           8.0715    4.6296    0.5249 O.2     1  LIG1       -0.1383
      7 O           4.9084    0.1679   -2.0792 O.3     1  LIG1       -0.4590
      8 N           8.9261    2.6743    0.8068 N.3     1  LIG1       -0.1906
      9 N           7.9516    3.0861   -1.4339 N.pl3   1  LIG1       -0.1891
     10 N           8.6067    1.2165   -2.3031 N.ar    1  LIG1       -0.2186
     11 N           8.6195   -0.9018   -0.8207 N.ar    1  LIG1       -0.2008
     12 N           6.0956   -2.4912   -1.2612 N.ar    1  LIG1       -0.2022
     13 N           6.7354   -1.2733   -3.4747 N.ar    1  LIG1       -0.2022
     14 C           7.0574    1.5433   -0.6847 C.ar    1  LIG1        0.0848
     15 C           8.0399    1.6815   -1.8301 C.ar    1  LIG1        0.1532
     16 C           5.7952    2.1666    0.4784 C.ar    1  LIG1       -0.0094
     17 C           8.0487   -0.3832    0.2071 C.ar    1  LIG1        0.2276
     18 C           5.3923    3.4450   -0.3879 C.ar    1  LIG1       -0.0527
     19 C           4.7896    1.3076    1.1210 C.ar    1  LIG1       -0.0527
     20 C           5.1787   -1.5446    0.0853 C.3     1  LIG1        0.1252
     21 C           4.1563    3.3666    0.6194 C.ar    1  LIG1       -0.0472
     22 C           2.9423    1.2138    1.5052 C.ar    1  LIG1       -0.0472
     23 C           9.4404   -0.0733   -1.4673 C.ar    1  LIG1        0.1219
     24 C           4.9559   -0.2925   -1.3698 C.3     1  LIG1        0.1267
     25 C           3.2343    2.5455    0.6573 C.ar    1  LIG1        0.0179
     26 C           5.5185   -1.0450   -2.9016 C.ar    1  LIG1        0.3180
     27 C           6.7371   -3.6669   -1.4362 C.ar    1  LIG1        0.0483
     28 C           7.3700   -1.9745   -3.5904 C.ar    1  LIG1        0.0483
     29 C           7.4014   -3.4047   -2.9609 C.ar    1  LIG1        0.0543
     30 H           8.1599    2.1625    1.6910 H       1  LIG1        0.1456
     31 H          10.0845    3.6133    1.6350 H       1  LIG1        0.1456
     32 H           7.5745    3.4947   -2.2464 H       1  LIG1        0.1763
     33 H           5.4606    3.4600   -0.8779 H       1  LIG1        0.0624
     34 H           5.0187    0.3277    0.7275 H       1  LIG1        0.0624
     35 H           4.7500   -1.3851    1.0571 H       1  LIG1        0.0731
     36 H           4.7110   -1.7701   -0.4059 H       1  LIG1        0.0731
     37 H           3.9315    4.3588   -0.1543 H       1  LIG1        0.0629
     38 H           2.8553    0.6006    1.3712 H       1  LIG1        0.0629
     39 H          10.3306   -0.4640   -1.8137 H       1  LIG1        0.1049
     40 H           3.3041   -0.1153   -1.2095 H       1  LIG1        0.0732
     41 H           5.3999    1.0646   -0.9134 H       1  LIG1        0.0732
     42 H           6.7282   -3.7483   -0.6610 H       1  LIG1        0.0843
     43 H           7.8575   -2.2971   -4.4757 H       1  LIG1        0.0843
@<TRIPOS>BOND
     1     1    25    1
     2     2    29    1
     3     3     9    1
     4     3     8    1
     5     3     6    2
     6     3     5    2
     7     4    17    1
     8     4    20    1
     9     7    24    1
    10     7    26    1
    11     9    15    1
    12    10    15   ar
    13    10    23   ar
    14    11    17   ar
    15    11    23   ar
    16    12    26   ar
    17    12    27   ar
    18    13    26   ar
    19    13    28   ar
    20    14    15   ar
    21    14    17   ar
    22    16    18   ar
    23    16    19   ar
    24    16    14    1
    25    18    21   ar
    26    19    22   ar
    27    20    24    1
    28    21    25   ar
    29    22    25   ar
    30    27    29   ar
    31    28    29   ar
    32     8    30    1
    33     8    31    1
    34     9    32    1
    35    18    33    1
    36    19    34    1
    37    20    35    1
    38    20    36    1
    39    21    37    1
    40    22    38    1
    41    23    39    1
    42    24    40    1
    43    24    41    1
    44    27    42    1
    45    28    43    1
@<TRIPOS>MOLECULE
*****
 43 45 0 0 0
SMALL
GASTEIGER

@<TRIPOS>ATOM
      1 BR          1.7301    3.0526    1.6366 Br      1  LIG1       -0.0503
      2 BR          7.6100    1.3154    5.4065 Br      1  LIG1       -0.0472
      3 S           8.7261    3.9833   -0.1430 S.O2    1  LIG1        0.1079
      4 O           6.6032   -1.2576   -0.5292 O.3     1  LIG1       -0.4724
      5 O          10.1058    3.5663   -0.1643 O.2     1  LIG1       -0.1383
      6 O           8.3620    5.3759   -0.0576 O.2     1  LIG1       -0.1383
      7 O           9.0781   -2.0663    0.7326 O.3     1  LIG1       -0.4590
      8 N           8.0093    3.2613    1.1719 N.3     1  LIG1       -0.1906
      9 N           7.8779    3.3334   -1.4261 N.pl3   1  LIG1       -0.1891
     10 N           9.0173    1.5626   -2.2719 N.ar    1  LIG1       -0.2186
     11 N           8.4569   -0.6931   -1.8285 N.ar    1  LIG1       -0.2008
     12 N           7.5656   -1.6049    2.4840 N.ar    1  LIG1       -0.2022
     13 N           9.5795   -0.3661    2.1822 N.ar    1  LIG1       -0.2022
     14 C           7.0104    1.0570   -0.9652 C.ar    1  LIG1        0.0848
     15 C           7.9438    1.9168   -1.5475 C.ar    1  LIG1        0.1532
     16 C           5.7465    1.5228   -0.3299 C.ar    1  LIG1       -0.0094
     17 C           7.3781   -0.2769   -1.1267 C.ar    1  LIG1        0.2276
     18 C           4.9970    2.5795   -0.8907 C.ar    1  LIG1       -0.0527
     19 C           5.2268    0.9395    0.8390 C.ar    1  LIG1       -0.0527
     20 C           7.0885   -2.5940   -0.6908 C.3     1  LIG1        0.1252
     21 C           3.8136    3.0455   -0.3054 C.ar    1  LIG1       -0.0472
     22 C           4.0330    1.3857    1.4223 C.ar    1  LIG1       -0.0472
     23 C           9.2284    0.2527   -2.3620 C.ar    1  LIG1        0.1219
     24 C           8.1306   -3.0559    0.3437 C.3     1  LIG1        0.1267
     25 C           3.3349    2.4421    0.8496 C.ar    1  LIG1        0.0179
     26 C           8.7166   -1.3347    1.8411 C.ar    1  LIG1        0.3180
     27 C           7.2753   -0.8187    3.5420 C.ar    1  LIG1        0.0483
     28 C           9.2361    0.3938    3.2432 C.ar    1  LIG1        0.0483
     29 C           8.0780    0.2144    3.9618 C.ar    1  LIG1        0.0543
     30 H           7.0993    3.6912    1.3368 H       1  LIG1        0.1456
     31 H           8.6252    3.3795    1.9752 H       1  LIG1        0.1456
     32 H           8.3069    3.7208   -2.2665 H       1  LIG1        0.1763
     33 H           5.3251    3.0633   -1.8097 H       1  LIG1        0.0624
     34 H           5.7448    0.1124    1.3153 H       1  LIG1        0.0624
     35 H           7.4361   -2.7791   -1.7150 H       1  LIG1        0.0731
     36 H           6.2161   -3.2511   -0.5836 H       1  LIG1        0.0731
     37 H           3.2772    3.8708   -0.7671 H       1  LIG1        0.0629
     38 H           3.6587    0.8954    2.3170 H       1  LIG1        0.0629
     39 H          10.1018   -0.0749   -2.9145 H       1  LIG1        0.1049
     40 H           7.6487   -3.5355    1.2046 H       1  LIG1        0.0732
     41 H           8.7084   -3.8662   -0.1195 H       1  LIG1        0.0732
     42 H           6.3381   -1.0521    4.0386 H       1  LIG1        0.0843
     43 H           9.9489    1.1737    3.4937 H       1  LIG1        0.0843
@<TRIPOS>BOND
     1     1    25    1
     2     2    29    1
     3     3     9    1
     4     3     8    1
     5     3     6    2
     6     3     5    2
     7     4    17    1
     8     4    20    1
     9     7    24    1
    10     7    26    1
    11     9    15    1
    12    10    15   ar
    13    10    23   ar
    14    11    17   ar
    15    11    23   ar
    16    12    26   ar
    17    12    27   ar
    18    13    26   ar
    19    13    28   ar
    20    14    15   ar
    21    14    17   ar
    22    16    18   ar
    23    16    19   ar
    24    16    14    1
    25    18    21   ar
    26    19    22   ar
    27    20    24    1
    28    21    25   ar
    29    22    25   ar
    30    27    29   ar
    31    28    29   ar
    32     8    30    1
    33     8    31    1
    34     9    32    1
    35    18    33    1
    36    19    34    1
    37    20    35    1
    38    20    36    1
    39    21    37    1
    40    22    38    1
    41    23    39    1
    42    24    40    1
    43    24    41    1
    44    27    42    1
    45    28    43    1
@<TRIPOS>MOLECULE
*****
 43 45 0 0 0
SMALL
GASTEIGER

@<TRIPOS>ATOM
      1 BR          1.6683    3.0275    1.6250 Br      1  LIG1       -0.0503
      2 BR          7.0045    1.7428    4.8869 Br      1  LIG1       -0.0472
      3 S           7.3152    3.5854   -3.3619 S.O2    1  LIG1        0.1079
      4 O           6.8169   -1.2305   -0.0425 O.3     1  LIG1       -0.4724
      5 O           6.5559    4.8065   -3.3210 O.2     1  LIG1       -0.1383
      6 O           8.4541    3.4389   -4.2303 O.2     1  LIG1       -0.1383
      7 O           9.3484   -2.1234    1.0429 O.3     1  LIG1       -0.4590
      8 N           6.2592    2.3675   -3.7826 N.3     1  LIG1       -0.1906
      9 N           7.7573    3.1907   -1.8050 N.pl3   1  LIG1       -0.1891
     10 N           9.1524    1.4282   -2.0556 N.ar    1  LIG1       -0.2186
     11 N           8.6307   -0.7713   -1.4023 N.ar    1  LIG1       -0.2008
     12 N           7.7467   -1.6911    2.7105 N.ar    1  LIG1       -0.2022
     13 N           9.5021   -0.1528    2.1932 N.ar    1  LIG1       -0.2022
     14 C           7.0506    1.0114   -0.8532 C.ar    1  LIG1        0.0848
     15 C           7.9742    1.8148   -1.5343 C.ar    1  LIG1        0.1532
     16 C           5.7613    1.4984   -0.2410 C.ar    1  LIG1       -0.0094
     17 C           7.5015   -0.3124   -0.8150 C.ar    1  LIG1        0.2276
     18 C           5.5436    2.8481    0.1131 C.ar    1  LIG1       -0.0527
     19 C           4.6695    0.6365    0.0091 C.ar    1  LIG1       -0.0527
     20 C           7.2018   -2.5953   -0.2256 C.3     1  LIG1        0.1252
     21 C           4.3286    3.3111    0.6450 C.ar    1  LIG1       -0.0472
     22 C           3.4665    1.0779    0.5844 C.ar    1  LIG1       -0.0472
     23 C           9.4222    0.1328   -1.9655 C.ar    1  LIG1        0.1219
     24 C           8.4172   -3.0994    0.5857 C.3     1  LIG1        0.1267
     25 C           3.2970    2.4190    0.8886 C.ar    1  LIG1        0.0179
     26 C           8.8556   -1.3200    2.0443 C.ar    1  LIG1        0.3180
     27 C           7.2257   -0.7681    3.5444 C.ar    1  LIG1        0.0483
     28 C           8.9445    0.7236    3.0540 C.ar    1  LIG1        0.0483
     29 C           7.7843    0.4713    3.7481 C.ar    1  LIG1        0.0543
     30 H           6.7997    1.5865   -4.1548 H       1  LIG1        0.1456
     31 H           5.6165    2.7240   -4.4891 H       1  LIG1        0.1456
     32 H           8.6296    3.6897   -1.6300 H       1  LIG1        0.1763
     33 H           6.3148    3.6023   -0.0202 H       1  LIG1        0.0624
     34 H           4.7133   -0.4184   -0.2457 H       1  LIG1        0.0624
     35 H           7.3090   -2.8336   -1.2920 H       1  LIG1        0.0731
     36 H           6.3388   -3.1943    0.0916 H       1  LIG1        0.0731
     37 H           4.2093    4.3701    0.8585 H       1  LIG1        0.0629
     38 H           2.6709    0.3614    0.7748 H       1  LIG1        0.0629
     39 H          10.3577   -0.2160   -2.3872 H       1  LIG1        0.1049
     40 H           8.0988   -3.7497    1.4116 H       1  LIG1        0.0732
     41 H           8.9807   -3.7708   -0.0752 H       1  LIG1        0.0732
     42 H           6.3090   -1.0692    4.0425 H       1  LIG1        0.0843
     43 H           9.4758    1.6654    3.1531 H       1  LIG1        0.0843
@<TRIPOS>BOND
     1     1    25    1
     2     2    29    1
     3     3     9    1
     4     3     8    1
     5     3     6    2
     6     3     5    2
     7     4    17    1
     8     4    20    1
     9     7    24    1
    10     7    26    1
    11     9    15    1
    12    10    15   ar
    13    10    23   ar
    14    11    17   ar
    15    11    23   ar
    16    12    26   ar
    17    12    27   ar
    18    13    26   ar
    19    13    28   ar
    20    14    15   ar
    21    14    17   ar
    22    16    18   ar
    23    16    19   ar
    24    16    14    1
    25    18    21   ar
    26    19    22   ar
    27    20    24    1
    28    21    25   ar
    29    22    25   ar
    30    27    29   ar
    31    28    29   ar
    32     8    30    1
    33     8    31    1
    34     9    32    1
    35    18    33    1
    36    19    34    1
    37    20    35    1
    38    20    36    1
    39    21    37    1
    40    22    38    1
    41    23    39    1
    42    24    40    1
    43    24    41    1
    44    27    42    1
    45    28    43    1
