@<TRIPOS>MOLECULE
6918493
 49 51 0 0 0
SMALL
GASTEIGER

@<TRIPOS>ATOM
      1 O          -2.0069    0.2203   -1.9903 O.3     1  LIG1       -0.3632
      2 O           0.8320    0.1910    0.5163 O.3     1  LIG1       -0.4495
      3 O           0.4028    2.8143    0.0033 O.co2   1  LIG1       -0.5459
      4 O           0.2265    2.3927   -2.2265 O.co2   1  LIG1       -0.5459
      5 N           2.7785   -0.5609    1.4462 N.ar    1  LIG1       -0.2002
      6 N           2.8502    0.5888   -0.6355 N.ar    1  LIG1       -0.2002
      7 C          -1.3173    0.0304   -0.7164 C.3     1  LIG1        0.1609
      8 C           0.1715    0.5292   -0.7355 C.3     1  LIG1        0.1791
      9 C          -2.1425    0.8137    0.3499 C.ar    1  LIG1       -0.0075
     10 C          -1.4934   -1.5081   -0.4549 C.ar    1  LIG1       -0.0075
     11 C          -1.9720    0.5642    1.7259 C.ar    1  LIG1       -0.0554
     12 C          -0.4216   -2.4094   -0.3418 C.ar    1  LIG1       -0.0554
     13 C          -3.0772    1.7958   -0.0241 C.ar    1  LIG1       -0.0554
     14 C          -2.7980   -2.0458   -0.3700 C.ar    1  LIG1       -0.0554
     15 C           0.2575    2.0563   -1.0011 C.2     1  LIG1        0.0856
     16 C          -1.3542   -0.2574   -3.1560 C.3     1  LIG1        0.0382
     17 C          -2.7229    1.2524    2.6837 C.ar    1  LIG1       -0.0614
     18 C          -0.6400   -3.7731   -0.1153 C.ar    1  LIG1       -0.0614
     19 C          -3.8305    2.4800    0.9336 C.ar    1  LIG1       -0.0614
     20 C          -3.0169   -3.4073   -0.1483 C.ar    1  LIG1       -0.0614
     21 C          -3.6558    2.2055    2.2873 C.ar    1  LIG1       -0.0617
     22 C          -1.9356   -4.2715   -0.0163 C.ar    1  LIG1       -0.0617
     23 C           2.2029    0.1178    0.4382 C.ar    1  LIG1        0.3191
     24 C           4.1135   -0.7142    1.3833 C.ar    1  LIG1        0.0453
     25 C           4.1862    0.4558   -0.6524 C.ar    1  LIG1        0.0453
     26 C           4.8716   -0.2075    0.3455 C.ar    1  LIG1       -0.0193
     27 C           4.7660   -1.4816    2.4916 C.3     1  LIG1       -0.0221
     28 C           4.9157    1.0554   -1.8139 C.3     1  LIG1       -0.0221
     29 H           0.6903    0.0138   -1.5549 H       1  LIG1        0.0834
     30 H          -1.2338   -0.1620    2.0604 H       1  LIG1        0.0621
     31 H           0.6077   -2.0757   -0.4261 H       1  LIG1        0.0621
     32 H          -3.2057    2.0522   -1.0735 H       1  LIG1        0.0621
     33 H          -3.6562   -1.3835   -0.4802 H       1  LIG1        0.0621
     34 H          -2.0556   -0.1609   -3.9903 H       1  LIG1        0.0524
     35 H          -1.0844   -1.3130   -3.0710 H       1  LIG1        0.0524
     36 H          -0.4722    0.3333   -3.4060 H       1  LIG1        0.0524
     37 H          -2.5566    1.0535    3.7382 H       1  LIG1        0.0618
     38 H           0.2110   -4.4411   -0.0165 H       1  LIG1        0.0618
     39 H          -4.5337    3.2441    0.6155 H       1  LIG1        0.0618
     40 H          -4.0332   -3.7844   -0.0800 H       1  LIG1        0.0618
     41 H          -4.2255    2.7523    3.0310 H       1  LIG1        0.0618
     42 H          -2.1006   -5.3288    0.1620 H       1  LIG1        0.0618
     43 H           5.9464   -0.3234    0.3143 H       1  LIG1        0.0653
     44 H           4.0264   -1.8035    3.2326 H       1  LIG1        0.0293
     45 H           5.5095   -0.8588    2.9998 H       1  LIG1        0.0293
     46 H           5.2572   -2.3751    2.0931 H       1  LIG1        0.0293
     47 H           4.2261    1.5908   -2.4754 H       1  LIG1        0.0293
     48 H           5.4092    0.2709   -2.3966 H       1  LIG1        0.0293
     49 H           5.6681    1.7684   -1.4616 H       1  LIG1        0.0293
@<TRIPOS>BOND
     1     1     7    1
     2     1    16    1
     3     2     8    1
     4     2    23    1
     5     3    15   ar
     6     4    15   ar
     7     5    23   ar
     8     5    24   ar
     9     6    23   ar
    10     6    25   ar
    11     7     8    1
    12     7     9    1
    13     7    10    1
    14     8    15    1
    15     9    11   ar
    16     9    13   ar
    17    10    12   ar
    18    10    14   ar
    19    11    17   ar
    20    12    18   ar
    21    13    19   ar
    22    14    20   ar
    23    17    21   ar
    24    18    22   ar
    25    19    21   ar
    26    20    22   ar
    27    24    26   ar
    28    24    27    1
    29    25    26   ar
    30    25    28    1
    31     8    29    1
    32    11    30    1
    33    12    31    1
    34    13    32    1
    35    14    33    1
    36    16    34    1
    37    16    35    1
    38    16    36    1
    39    17    37    1
    40    18    38    1
    41    19    39    1
    42    20    40    1
    43    21    41    1
    44    22    42    1
    45    26    43    1
    46    27    44    1
    47    27    45    1
    48    27    46    1
    49    28    47    1
    50    28    48    1
    51    28    49    1
@<TRIPOS>MOLECULE
6918493
 49 51 0 0 0
SMALL
GASTEIGER

@<TRIPOS>ATOM
      1 O          -2.0076    0.2175   -1.9888 O.3     1  LIG1       -0.3632
      2 O           0.8331    0.1884    0.5152 O.3     1  LIG1       -0.4495
      3 O           0.4060    2.8122    0.0002 O.co2   1  LIG1       -0.5459
      4 O           0.2265    2.3887   -2.2283 O.co2   1  LIG1       -0.5459
      5 N           2.7797   -0.5627    1.4459 N.ar    1  LIG1       -0.2002
      6 N           2.8513    0.5851   -0.6366 N.ar    1  LIG1       -0.2002
      7 C          -1.3166    0.0283   -0.7157 C.3     1  LIG1        0.1609
      8 C           0.1723    0.5261   -0.7359 C.3     1  LIG1        0.1791
      9 C          -2.1403    0.8117    0.3516 C.ar    1  LIG1       -0.0075
     10 C          -1.4930   -1.5105   -0.4530 C.ar    1  LIG1       -0.0075
     11 C          -1.9686    0.5642    1.7274 C.ar    1  LIG1       -0.0554
     12 C          -2.7977   -2.0470   -0.3642 C.ar    1  LIG1       -0.0554
     13 C          -3.0764    1.7939   -0.0224 C.ar    1  LIG1       -0.0554
     14 C          -0.4213   -2.4122   -0.3425 C.ar    1  LIG1       -0.0554
     15 C           0.2586    2.0533   -1.0025 C.2     1  LIG1        0.0856
     16 C          -1.3562   -0.2613   -3.1548 C.3     1  LIG1        0.0382
     17 C          -2.7175    1.2527    2.6854 C.ar    1  LIG1       -0.0614
     18 C          -3.0168   -3.4086   -0.1419 C.ar    1  LIG1       -0.0614
     19 C          -3.8286    2.4790    0.9355 C.ar    1  LIG1       -0.0614
     20 C          -0.6399   -3.7757   -0.1159 C.ar    1  LIG1       -0.0614
     21 C          -3.6520    2.2056    2.2890 C.ar    1  LIG1       -0.0617
     22 C          -1.9355   -4.2730   -0.0123 C.ar    1  LIG1       -0.0617
     23 C           2.2036    0.1148    0.4376 C.ar    1  LIG1        0.3191
     24 C           4.1150   -0.7155    1.3833 C.ar    1  LIG1        0.0453
     25 C           4.1872    0.4530   -0.6531 C.ar    1  LIG1        0.0453
     26 C           4.8732   -0.2087    0.3452 C.ar    1  LIG1       -0.0193
     27 C           4.7678   -1.4812    2.4928 C.3     1  LIG1       -0.0221
     28 C           4.9168    1.0526   -1.8150 C.3     1  LIG1       -0.0221
     29 H           0.6902    0.0105   -1.5555 H       1  LIG1        0.0834
     30 H          -1.2301   -0.1616    2.0613 H       1  LIG1        0.0621
     31 H          -3.6557   -1.3846   -0.4721 H       1  LIG1        0.0621
     32 H          -3.2063    2.0491   -1.0724 H       1  LIG1        0.0621
     33 H           0.6078   -2.0788   -0.4301 H       1  LIG1        0.0621
     34 H          -2.0577   -0.1633   -3.9887 H       1  LIG1        0.0524
     35 H          -1.0890   -1.3178   -3.0700 H       1  LIG1        0.0524
     36 H          -0.4731    0.3272   -3.4051 H       1  LIG1        0.0524
     37 H          -2.5505    1.0553    3.7396 H       1  LIG1        0.0618
     38 H          -4.0326   -3.7851   -0.0706 H       1  LIG1        0.0618
     39 H          -4.5321    3.2419    0.6176 H       1  LIG1        0.0618
     40 H           0.2111   -4.4442   -0.0199 H       1  LIG1        0.0618
     41 H          -4.2209    2.7530    3.0331 H       1  LIG1        0.0618
     42 H          -2.1005   -5.3310    0.1655 H       1  LIG1        0.0618
     43 H           5.9478   -0.3247    0.3143 H       1  LIG1        0.0653
     44 H           4.0283   -1.8031    3.2334 H       1  LIG1        0.0293
     45 H           5.5103   -0.8580    3.0002 H       1  LIG1        0.0293
     46 H           5.2594   -2.3748    2.0950 H       1  LIG1        0.0293
     47 H           4.2270    1.5861   -2.4770 H       1  LIG1        0.0293
     48 H           5.4116    0.2685   -2.3960 H       1  LIG1        0.0293
     49 H           5.6678    1.7669   -1.4628 H       1  LIG1        0.0293
@<TRIPOS>BOND
     1     1     7    1
     2     1    16    1
     3     2     8    1
     4     2    23    1
     5     3    15   ar
     6     4    15   ar
     7     5    23   ar
     8     5    24   ar
     9     6    23   ar
    10     6    25   ar
    11     7     8    1
    12     7     9    1
    13     7    10    1
    14     8    15    1
    15     9    11   ar
    16     9    13   ar
    17    10    12   ar
    18    10    14   ar
    19    11    17   ar
    20    12    18   ar
    21    13    19   ar
    22    14    20   ar
    23    17    21   ar
    24    18    22   ar
    25    19    21   ar
    26    20    22   ar
    27    24    26   ar
    28    24    27    1
    29    25    26   ar
    30    25    28    1
    31     8    29    1
    32    11    30    1
    33    12    31    1
    34    13    32    1
    35    14    33    1
    36    16    34    1
    37    16    35    1
    38    16    36    1
    39    17    37    1
    40    18    38    1
    41    19    39    1
    42    20    40    1
    43    21    41    1
    44    22    42    1
    45    26    43    1
    46    27    44    1
    47    27    45    1
    48    27    46    1
    49    28    47    1
    50    28    48    1
    51    28    49    1
@<TRIPOS>MOLECULE
6918493
 49 51 0 0 0
SMALL
GASTEIGER

@<TRIPOS>ATOM
      1 O          -2.0269    0.2117   -1.9620 O.3     1  LIG1       -0.3632
      2 O           0.8494    0.1901    0.5088 O.3     1  LIG1       -0.4495
      3 O           0.3595    2.7968   -0.1713 O.co2   1  LIG1       -0.5459
      4 O           0.4966    2.1942   -2.3596 O.co2   1  LIG1       -0.5459
      5 N           2.9026    0.5137    1.4906 N.ar    1  LIG1       -0.2002
      6 N           2.7570   -0.4379   -0.6874 N.ar    1  LIG1       -0.2002
      7 C          -1.3255    0.0132   -0.6946 C.3     1  LIG1        0.1609
      8 C           0.1738    0.4647   -0.7531 C.3     1  LIG1        0.1791
      9 C          -2.1171    0.8231    0.3750 C.ar    1  LIG1       -0.0075
     10 C          -1.5307   -1.5187   -0.4125 C.ar    1  LIG1       -0.0075
     11 C          -3.0625    1.7982    0.0063 C.ar    1  LIG1       -0.0554
     12 C          -0.4738   -2.4371   -0.2920 C.ar    1  LIG1       -0.0554
     13 C          -1.9204    0.5944    1.7508 C.ar    1  LIG1       -0.0554
     14 C          -2.8443   -2.0317   -0.3212 C.ar    1  LIG1       -0.0554
     15 C           0.3320    1.9622   -1.1213 C.2     1  LIG1        0.0856
     16 C          -1.4198   -0.3189   -3.1303 C.3     1  LIG1        0.0382
     17 C          -3.7997    2.4939    0.9686 C.ar    1  LIG1       -0.0614
     18 C          -0.7150   -3.7960   -0.0616 C.ar    1  LIG1       -0.0614
     19 C          -2.6534    1.2938    2.7134 C.ar    1  LIG1       -0.0614
     20 C          -3.0857   -3.3889   -0.0941 C.ar    1  LIG1       -0.0614
     21 C          -3.5981    2.2387    2.3223 C.ar    1  LIG1       -0.0617
     22 C          -2.0191   -4.2711    0.0392 C.ar    1  LIG1       -0.0617
     23 C           2.2217    0.1590    0.3904 C.ar    1  LIG1        0.3191
     24 C           4.2419    0.3901    1.4317 C.ar    1  LIG1        0.0453
     25 C           4.0960   -0.5565   -0.7127 C.ar    1  LIG1        0.0453
     26 C           4.8919   -0.1461    0.3371 C.ar    1  LIG1       -0.0193
     27 C           5.0241    0.8504    2.6242 C.3     1  LIG1       -0.0221
     28 C           4.7033   -1.1778   -1.9320 C.3     1  LIG1       -0.0221
     29 H           0.6528   -0.1117   -1.5548 H       1  LIG1        0.0834
     30 H          -3.2173    2.0366   -1.0440 H       1  LIG1        0.0621
     31 H           0.5608   -2.1209   -0.3800 H       1  LIG1        0.0621
     32 H          -1.1774   -0.1280    2.0814 H       1  LIG1        0.0621
     33 H          -3.6906   -1.3557   -0.4348 H       1  LIG1        0.0621
     34 H          -2.1366   -0.2148   -3.9504 H       1  LIG1        0.0524
     35 H          -1.1872   -1.3817   -3.0272 H       1  LIG1        0.0524
     36 H          -0.5238    0.2323   -3.4148 H       1  LIG1        0.0524
     37 H          -4.5133    3.2487    0.6537 H       1  LIG1        0.0618
     38 H           0.1247   -4.4780    0.0347 H       1  LIG1        0.0618
     39 H          -2.4683    1.1092    3.7670 H       1  LIG1        0.0618
     40 H          -4.1076   -3.7490   -0.0250 H       1  LIG1        0.0618
     41 H          -4.1567    2.7926    3.0693 H       1  LIG1        0.0618
     42 H          -2.2018   -5.3263    0.2170 H       1  LIG1        0.0618
     43 H           5.9691   -0.2419    0.3063 H       1  LIG1        0.0653
     44 H           4.3631    1.2864    3.3813 H       1  LIG1        0.0293
     45 H           5.7508    1.6130    2.3288 H       1  LIG1        0.0293
     46 H           5.5523    0.0063    3.0771 H       1  LIG1        0.0293
     47 H           3.9330   -1.4170   -2.6727 H       1  LIG1        0.0293
     48 H           5.2176   -2.1068   -1.6656 H       1  LIG1        0.0293
     49 H           5.4178   -0.4902   -2.3945 H       1  LIG1        0.0293
@<TRIPOS>BOND
     1     1     7    1
     2     1    16    1
     3     2     8    1
     4     2    23    1
     5     3    15   ar
     6     4    15   ar
     7     5    23   ar
     8     5    24   ar
     9     6    23   ar
    10     6    25   ar
    11     7     8    1
    12     7     9    1
    13     7    10    1
    14     8    15    1
    15     9    11   ar
    16     9    13   ar
    17    10    12   ar
    18    10    14   ar
    19    11    17   ar
    20    12    18   ar
    21    13    19   ar
    22    14    20   ar
    23    17    21   ar
    24    18    22   ar
    25    19    21   ar
    26    20    22   ar
    27    24    26   ar
    28    24    27    1
    29    25    26   ar
    30    25    28    1
    31     8    29    1
    32    11    30    1
    33    12    31    1
    34    13    32    1
    35    14    33    1
    36    16    34    1
    37    16    35    1
    38    16    36    1
    39    17    37    1
    40    18    38    1
    41    19    39    1
    42    20    40    1
    43    21    41    1
    44    22    42    1
    45    26    43    1
    46    27    44    1
    47    27    45    1
    48    27    46    1
    49    28    47    1
    50    28    48    1
    51    28    49    1
@<TRIPOS>MOLECULE
6918493
 49 51 0 0 0
SMALL
GASTEIGER

@<TRIPOS>ATOM
      1 O          -2.0046    0.2723   -1.9829 O.3     1  LIG1       -0.3632
      2 O           0.8224    0.1631    0.5349 O.3     1  LIG1       -0.4495
      3 O           0.4582    2.7978    0.0273 O.co2   1  LIG1       -0.5459
      4 O           0.2604    2.3915   -2.2029 O.co2   1  LIG1       -0.5459
      5 N           2.7621   -0.5915    1.4812 N.ar    1  LIG1       -0.2002
      6 N           2.8514    0.5584   -0.5988 N.ar    1  LIG1       -0.2002
      7 C          -1.3121    0.0364   -0.7185 C.3     1  LIG1        0.1609
      8 C           0.1804    0.5193   -0.7221 C.3     1  LIG1        0.1791
      9 C          -2.1220    0.8105    0.3644 C.ar    1  LIG1       -0.0075
     10 C          -1.5030   -1.5075   -0.4997 C.ar    1  LIG1       -0.0075
     11 C          -2.0742    0.4387    1.7220 C.ar    1  LIG1       -0.0554
     12 C          -2.8123   -2.0384   -0.4568 C.ar    1  LIG1       -0.0554
     13 C          -2.9043    1.9290    0.0210 C.ar    1  LIG1       -0.0554
     14 C          -0.4391   -2.4172   -0.3784 C.ar    1  LIG1       -0.0554
     15 C           0.2944    2.0473   -0.9798 C.2     1  LIG1        0.0856
     16 C          -1.3711   -0.1992   -3.1621 C.3     1  LIG1        0.0382
     17 C          -2.8094    1.1320    2.6874 C.ar    1  LIG1       -0.0614
     18 C          -3.0438   -3.4032   -0.2693 C.ar    1  LIG1       -0.0614
     19 C          -3.6339    2.6260    0.9873 C.ar    1  LIG1       -0.0614
     20 C          -0.6701   -3.7838   -0.1860 C.ar    1  LIG1       -0.0614
     21 C          -3.5929    2.2225    2.3190 C.ar    1  LIG1       -0.0617
     22 C          -1.9705   -4.2761   -0.1279 C.ar    1  LIG1       -0.0617
     23 C           2.1946    0.0887    0.4703 C.ar    1  LIG1        0.3191
     24 C           4.0981   -0.7443    1.4287 C.ar    1  LIG1        0.0453
     25 C           4.1873    0.4277   -0.6049 C.ar    1  LIG1        0.0453
     26 C           4.8649   -0.2356    0.3974 C.ar    1  LIG1       -0.0193
     27 C           4.7424   -1.5131    2.5407 C.3     1  LIG1       -0.0221
     28 C           4.9244    1.0305   -1.7603 C.3     1  LIG1       -0.0221
     29 H           0.6991    0.0017   -1.5403 H       1  LIG1        0.0834
     30 H          -1.4444   -0.3907    2.0368 H       1  LIG1        0.0621
     31 H          -3.6631   -1.3677   -0.5721 H       1  LIG1        0.0621
     32 H          -2.9178    2.2850   -1.0081 H       1  LIG1        0.0621
     33 H           0.5938   -2.0882   -0.4286 H       1  LIG1        0.0621
     34 H          -2.0595   -0.0318   -3.9958 H       1  LIG1        0.0524
     35 H          -1.1663   -1.2719   -3.1137 H       1  LIG1        0.0524
     36 H          -0.4528    0.3440   -3.3861 H       1  LIG1        0.0524
     37 H          -2.7475    0.8303    3.7280 H       1  LIG1        0.0618
     38 H          -4.0629   -3.7760   -0.2327 H       1  LIG1        0.0618
     39 H          -4.2089    3.4993    0.6952 H       1  LIG1        0.0618
     40 H           0.1748   -4.4587   -0.0798 H       1  LIG1        0.0618
     41 H          -4.1455    2.7758    3.0711 H       1  LIG1        0.0618
     42 H          -2.1452   -5.3367    0.0236 H       1  LIG1        0.0618
     43 H           5.9399   -0.3511    0.3751 H       1  LIG1        0.0653
     44 H           3.9979   -1.8348    3.2761 H       1  LIG1        0.0293
     45 H           5.4831   -0.8923    3.0537 H       1  LIG1        0.0293
     46 H           5.2349   -2.4068    2.1441 H       1  LIG1        0.0293
     47 H           4.2391    1.5677   -2.4241 H       1  LIG1        0.0293
     48 H           5.4211    0.2479   -2.3417 H       1  LIG1        0.0293
     49 H           5.6742    1.7424   -1.4012 H       1  LIG1        0.0293
@<TRIPOS>BOND
     1     1     7    1
     2     1    16    1
     3     2     8    1
     4     2    23    1
     5     3    15   ar
     6     4    15   ar
     7     5    23   ar
     8     5    24   ar
     9     6    23   ar
    10     6    25   ar
    11     7     8    1
    12     7     9    1
    13     7    10    1
    14     8    15    1
    15     9    11   ar
    16     9    13   ar
    17    10    12   ar
    18    10    14   ar
    19    11    17   ar
    20    12    18   ar
    21    13    19   ar
    22    14    20   ar
    23    17    21   ar
    24    18    22   ar
    25    19    21   ar
    26    20    22   ar
    27    24    26   ar
    28    24    27    1
    29    25    26   ar
    30    25    28    1
    31     8    29    1
    32    11    30    1
    33    12    31    1
    34    13    32    1
    35    14    33    1
    36    16    34    1
    37    16    35    1
    38    16    36    1
    39    17    37    1
    40    18    38    1
    41    19    39    1
    42    20    40    1
    43    21    41    1
    44    22    42    1
    45    26    43    1
    46    27    44    1
    47    27    45    1
    48    27    46    1
    49    28    47    1
    50    28    48    1
    51    28    49    1
@<TRIPOS>MOLECULE
6918493
 49 51 0 0 0
SMALL
GASTEIGER

@<TRIPOS>ATOM
      1 O          -1.9958    0.2262   -1.9807 O.3     1  LIG1       -0.3632
      2 O           0.8355    0.2492    0.5343 O.3     1  LIG1       -0.4495
      3 O           0.3537    2.8544   -0.0435 O.co2   1  LIG1       -0.5459
      4 O           0.2546    2.3718   -2.2663 O.co2   1  LIG1       -0.5459
      5 N           2.8590    0.6327   -0.6108 N.ar    1  LIG1       -0.2002
      6 N           2.7664   -0.5655    1.4422 N.ar    1  LIG1       -0.2002
      7 C          -1.3119    0.0433   -0.7020 C.3     1  LIG1        0.1609
      8 C           0.1748    0.5491   -0.7264 C.3     1  LIG1        0.1791
      9 C          -2.1471    0.8231    0.3600 C.ar    1  LIG1       -0.0075
     10 C          -1.4803   -1.4945   -0.4311 C.ar    1  LIG1       -0.0075
     11 C          -1.9330    0.6279    1.7383 C.ar    1  LIG1       -0.0554
     12 C          -0.4041   -2.3853   -0.2835 C.ar    1  LIG1       -0.0554
     13 C          -3.1416    1.7443   -0.0195 C.ar    1  LIG1       -0.0554
     14 C          -2.7817   -2.0437   -0.3793 C.ar    1  LIG1       -0.0554
     15 C           0.2501    2.0690   -1.0303 C.2     1  LIG1        0.0856
     16 C          -1.3523   -0.2817   -3.1390 C.3     1  LIG1        0.0382
     17 C          -2.6861    1.3165    2.6934 C.ar    1  LIG1       -0.0614
     18 C          -0.6160   -3.7512   -0.0646 C.ar    1  LIG1       -0.0614
     19 C          -3.9017    2.4253    0.9356 C.ar    1  LIG1       -0.0614
     20 C          -2.9942   -3.4080   -0.1671 C.ar    1  LIG1       -0.0614
     21 C          -3.6744    2.2107    2.2920 C.ar    1  LIG1       -0.0617
     22 C          -1.9090   -4.2621   -0.0054 C.ar    1  LIG1       -0.0617
     23 C           2.2037    0.1480    0.4514 C.ar    1  LIG1        0.3191
     24 C           4.1908    0.4642   -0.6383 C.ar    1  LIG1        0.0453
     25 C           4.0970   -0.7515    1.3695 C.ar    1  LIG1        0.0453
     26 C           4.8633   -0.2401    0.3398 C.ar    1  LIG1       -0.0193
     27 C           4.9300    1.0703   -1.7908 C.3     1  LIG1       -0.0221
     28 C           4.7338   -1.5620    2.4562 C.3     1  LIG1       -0.0221
     29 H           0.6996    0.0168   -1.5307 H       1  LIG1        0.0834
     30 H          -1.1560   -0.0536    2.0777 H       1  LIG1        0.0621
     31 H           0.6239   -2.0431   -0.3374 H       1  LIG1        0.0621
     32 H          -3.3151    1.9550   -1.0727 H       1  LIG1        0.0621
     33 H          -3.6425   -1.3899   -0.5146 H       1  LIG1        0.0621
     34 H          -2.0351   -0.1438   -3.9826 H       1  LIG1        0.0524
     35 H          -1.1455   -1.3517   -3.0538 H       1  LIG1        0.0524
     36 H          -0.4344    0.2570   -3.3754 H       1  LIG1        0.0524
     37 H          -2.4803    1.1656    3.7484 H       1  LIG1        0.0618
     38 H           0.2383   -4.4110    0.0581 H       1  LIG1        0.0618
     39 H          -4.6519    3.1400    0.6121 H       1  LIG1        0.0618
     40 H          -4.0079   -3.7952   -0.1307 H       1  LIG1        0.0618
     41 H          -4.2477    2.7579    3.0330 H       1  LIG1        0.0618
     42 H          -2.0688   -5.3224    0.1629 H       1  LIG1        0.0618
     43 H           5.9343   -0.3847    0.2995 H       1  LIG1        0.0653
     44 H           4.2493    1.6260   -2.4439 H       1  LIG1        0.0293
     45 H           5.4112    0.2875   -2.3850 H       1  LIG1        0.0293
     46 H           5.6933    1.7656   -1.4271 H       1  LIG1        0.0293
     47 H           3.9883   -1.8870    3.1892 H       1  LIG1        0.0293
     48 H           5.4913   -0.9701    2.9787 H       1  LIG1        0.0293
     49 H           5.2039   -2.4555    2.0329 H       1  LIG1        0.0293
@<TRIPOS>BOND
     1     1     7    1
     2     1    16    1
     3     2     8    1
     4     2    23    1
     5     3    15   ar
     6     4    15   ar
     7     5    23   ar
     8     5    24   ar
     9     6    23   ar
    10     6    25   ar
    11     7     8    1
    12     7     9    1
    13     7    10    1
    14     8    15    1
    15     9    11   ar
    16     9    13   ar
    17    10    12   ar
    18    10    14   ar
    19    11    17   ar
    20    12    18   ar
    21    13    19   ar
    22    14    20   ar
    23    17    21   ar
    24    18    22   ar
    25    19    21   ar
    26    20    22   ar
    27    24    26   ar
    28    24    27    1
    29    25    26   ar
    30    25    28    1
    31     8    29    1
    32    11    30    1
    33    12    31    1
    34    13    32    1
    35    14    33    1
    36    16    34    1
    37    16    35    1
    38    16    36    1
    39    17    37    1
    40    18    38    1
    41    19    39    1
    42    20    40    1
    43    21    41    1
    44    22    42    1
    45    26    43    1
    46    27    44    1
    47    27    45    1
    48    27    46    1
    49    28    47    1
    50    28    48    1
    51    28    49    1
@<TRIPOS>MOLECULE
6918493
 49 51 0 0 0
SMALL
GASTEIGER

@<TRIPOS>ATOM
      1 O          -2.0286    0.2059   -1.9598 O.3     1  LIG1       -0.3632
      2 O           0.8499    0.1846    0.5093 O.3     1  LIG1       -0.4495
      3 O           0.3679    2.7908   -0.1703 O.co2   1  LIG1       -0.5459
      4 O           0.4894    2.1925   -2.3586 O.co2   1  LIG1       -0.5459
      5 N           2.9033    0.5098    1.4905 N.ar    1  LIG1       -0.2002
      6 N           2.7597   -0.4370   -0.6892 N.ar    1  LIG1       -0.2002
      7 C          -1.3248    0.0085   -0.6933 C.3     1  LIG1        0.1609
      8 C           0.1742    0.4596   -0.7526 C.3     1  LIG1        0.1791
      9 C          -2.1153    0.8193    0.3766 C.ar    1  LIG1       -0.0075
     10 C          -1.5295   -1.5231   -0.4105 C.ar    1  LIG1       -0.0075
     11 C          -3.0569    1.7986    0.0079 C.ar    1  LIG1       -0.0554
     12 C          -2.8422   -2.0364   -0.3111 C.ar    1  LIG1       -0.0554
     13 C          -1.9213    0.5884    1.7522 C.ar    1  LIG1       -0.0554
     14 C          -0.4720   -2.4420   -0.2968 C.ar    1  LIG1       -0.0554
     15 C           0.3302    1.9587   -1.1194 C.2     1  LIG1        0.0856
     16 C          -1.4218   -0.3235   -3.1288 C.3     1  LIG1        0.0382
     17 C          -3.7926    2.4958    0.9705 C.ar    1  LIG1       -0.0614
     18 C          -3.0828   -3.3935   -0.0828 C.ar    1  LIG1       -0.0614
     19 C          -2.6530    1.2893    2.7149 C.ar    1  LIG1       -0.0614
     20 C          -0.7119   -3.8012   -0.0661 C.ar    1  LIG1       -0.0614
     21 C          -3.5935    2.2381    2.3235 C.ar    1  LIG1       -0.0617
     22 C          -2.0152   -4.2759    0.0435 C.ar    1  LIG1       -0.0617
     23 C           2.2212    0.1564    0.3910 C.ar    1  LIG1        0.3191
     24 C           4.2417    0.3904    1.4325 C.ar    1  LIG1        0.0453
     25 C           4.0979   -0.5522   -0.7145 C.ar    1  LIG1        0.0453
     26 C           4.8930   -0.1414    0.3359 C.ar    1  LIG1       -0.0193
     27 C           5.0223    0.8506    2.6250 C.3     1  LIG1       -0.0221
     28 C           4.7063   -1.1688   -1.9353 C.3     1  LIG1       -0.0221
     29 H           0.6523   -0.1147   -1.5551 H       1  LIG1        0.0834
     30 H          -3.2092    2.0389   -1.0426 H       1  LIG1        0.0621
     31 H          -3.6893   -1.3602   -0.4191 H       1  LIG1        0.0621
     32 H          -1.1809   -0.1370    2.0827 H       1  LIG1        0.0621
     33 H           0.5625   -2.1259   -0.3920 H       1  LIG1        0.0621
     34 H          -2.1399   -0.2209   -3.9479 H       1  LIG1        0.0524
     35 H          -1.1869   -1.3857   -3.0260 H       1  LIG1        0.0524
     36 H          -0.5274    0.2296   -3.4143 H       1  LIG1        0.0524
     37 H          -4.5026    3.2536    0.6554 H       1  LIG1        0.0618
     38 H          -4.1040   -3.7532   -0.0067 H       1  LIG1        0.0618
     39 H          -2.4697    1.1024    3.7684 H       1  LIG1        0.0618
     40 H           0.1283   -4.4833    0.0244 H       1  LIG1        0.0618
     41 H          -4.1510    2.7929    3.0707 H       1  LIG1        0.0618
     42 H          -2.1971   -5.3311    0.2220 H       1  LIG1        0.0618
     43 H           5.9701   -0.2347    0.3046 H       1  LIG1        0.0653
     44 H           4.3611    1.2838    3.3827 H       1  LIG1        0.0293
     45 H           5.7484    1.6155    2.3309 H       1  LIG1        0.0293
     46 H           5.5532    0.0070    3.0770 H       1  LIG1        0.0293
     47 H           3.9369   -1.4084   -2.6773 H       1  LIG1        0.0293
     48 H           5.2235   -2.0974   -1.6714 H       1  LIG1        0.0293
     49 H           5.4198   -0.4783   -2.3963 H       1  LIG1        0.0293
@<TRIPOS>BOND
     1     1     7    1
     2     1    16    1
     3     2     8    1
     4     2    23    1
     5     3    15   ar
     6     4    15   ar
     7     5    23   ar
     8     5    24   ar
     9     6    23   ar
    10     6    25   ar
    11     7     8    1
    12     7     9    1
    13     7    10    1
    14     8    15    1
    15     9    11   ar
    16     9    13   ar
    17    10    12   ar
    18    10    14   ar
    19    11    17   ar
    20    12    18   ar
    21    13    19   ar
    22    14    20   ar
    23    17    21   ar
    24    18    22   ar
    25    19    21   ar
    26    20    22   ar
    27    24    26   ar
    28    24    27    1
    29    25    26   ar
    30    25    28    1
    31     8    29    1
    32    11    30    1
    33    12    31    1
    34    13    32    1
    35    14    33    1
    36    16    34    1
    37    16    35    1
    38    16    36    1
    39    17    37    1
    40    18    38    1
    41    19    39    1
    42    20    40    1
    43    21    41    1
    44    22    42    1
    45    26    43    1
    46    27    44    1
    47    27    45    1
    48    27    46    1
    49    28    47    1
    50    28    48    1
    51    28    49    1
@<TRIPOS>MOLECULE
6918493
 49 51 0 0 0
SMALL
GASTEIGER

@<TRIPOS>ATOM
      1 O          -2.0300    0.2545   -1.9559 O.3     1  LIG1       -0.3632
      2 O           0.8314    0.1475    0.5297 O.3     1  LIG1       -0.4495
      3 O           0.4596    2.7629   -0.1575 O.co2   1  LIG1       -0.5459
      4 O           0.4951    2.1718   -2.3501 O.co2   1  LIG1       -0.5459
      5 N           2.8778    0.4704    1.5319 N.ar    1  LIG1       -0.2002
      6 N           2.7522   -0.4715   -0.6519 N.ar    1  LIG1       -0.2002
      7 C          -1.3254    0.0091   -0.6991 C.3     1  LIG1        0.1609
      8 C           0.1788    0.4390   -0.7423 C.3     1  LIG1        0.1791
      9 C          -2.0954    0.8185    0.3855 C.ar    1  LIG1       -0.0075
     10 C          -1.5514   -1.5265   -0.4558 C.ar    1  LIG1       -0.0075
     11 C          -2.8546    1.9523    0.0411 C.ar    1  LIG1       -0.0554
     12 C          -2.8716   -2.0278   -0.3997 C.ar    1  LIG1       -0.0554
     13 C          -2.0460    0.4552    1.7454 C.ar    1  LIG1       -0.0554
     14 C          -0.5057   -2.4572   -0.3302 C.ar    1  LIG1       -0.0554
     15 C           0.3691    1.9343   -1.1087 C.2     1  LIG1        0.0856
     16 C          -1.4506   -0.2785   -3.1373 C.3     1  LIG1        0.0382
     17 C          -3.5636    2.6701    1.0077 C.ar    1  LIG1       -0.0614
     18 C          -3.1301   -3.3866   -0.2026 C.ar    1  LIG1       -0.0614
     19 C          -2.7603    1.1695    2.7112 C.ar    1  LIG1       -0.0614
     20 C          -0.7642   -3.8174   -0.1303 C.ar    1  LIG1       -0.0614
     21 C          -3.5238    2.2733    2.3414 C.ar    1  LIG1       -0.0617
     22 C          -2.0746   -4.2814   -0.0641 C.ar    1  LIG1       -0.0617
     23 C           2.2040    0.1165    0.4270 C.ar    1  LIG1        0.3191
     24 C           4.2171    0.3628    1.4792 C.ar    1  LIG1        0.0453
     25 C           4.0912   -0.5767   -0.6706 C.ar    1  LIG1        0.0453
     26 C           4.8784   -0.1608    0.3846 C.ar    1  LIG1       -0.0193
     27 C           4.9892    0.8323    2.6738 C.3     1  LIG1       -0.0221
     28 C           4.7102   -1.1838   -1.8915 C.3     1  LIG1       -0.0221
     29 H           0.6563   -0.1427   -1.5407 H       1  LIG1        0.0834
     30 H          -2.8708    2.3006   -0.9901 H       1  LIG1        0.0621
     31 H          -3.7083   -1.3398   -0.5158 H       1  LIG1        0.0621
     32 H          -1.4343   -0.3871    2.0613 H       1  LIG1        0.0621
     33 H           0.5336   -2.1497   -0.3893 H       1  LIG1        0.0621
     34 H          -2.1452   -0.0857   -3.9605 H       1  LIG1        0.0524
     35 H          -1.3099   -1.3603   -3.0718 H       1  LIG1        0.0524
     36 H          -0.5066    0.2025   -3.3920 H       1  LIG1        0.0524
     37 H          -4.1240    3.5521    0.7137 H       1  LIG1        0.0618
     38 H          -4.1562   -3.7381   -0.1595 H       1  LIG1        0.0618
     39 H          -2.6997    0.8712    3.7533 H       1  LIG1        0.0618
     40 H           0.0669   -4.5097   -0.0291 H       1  LIG1        0.0618
     41 H          -4.0623    2.8407    3.0932 H       1  LIG1        0.0618
     42 H          -2.2704   -5.3380    0.0909 H       1  LIG1        0.0618
     43 H           5.9562   -0.2434    0.3569 H       1  LIG1        0.0653
     44 H           4.3209    1.2546    3.4308 H       1  LIG1        0.0293
     45 H           5.7043    1.6074    2.3819 H       1  LIG1        0.0293
     46 H           5.5315   -0.0046    3.1253 H       1  LIG1        0.0293
     47 H           3.9452   -1.4314   -2.6344 H       1  LIG1        0.0293
     48 H           5.2382   -2.1052   -1.6278 H       1  LIG1        0.0293
     49 H           5.4150   -0.4830   -2.3494 H       1  LIG1        0.0293
@<TRIPOS>BOND
     1     1     7    1
     2     1    16    1
     3     2     8    1
     4     2    23    1
     5     3    15   ar
     6     4    15   ar
     7     5    23   ar
     8     5    24   ar
     9     6    23   ar
    10     6    25   ar
    11     7     8    1
    12     7     9    1
    13     7    10    1
    14     8    15    1
    15     9    11   ar
    16     9    13   ar
    17    10    12   ar
    18    10    14   ar
    19    11    17   ar
    20    12    18   ar
    21    13    19   ar
    22    14    20   ar
    23    17    21   ar
    24    18    22   ar
    25    19    21   ar
    26    20    22   ar
    27    24    26   ar
    28    24    27    1
    29    25    26   ar
    30    25    28    1
    31     8    29    1
    32    11    30    1
    33    12    31    1
    34    13    32    1
    35    14    33    1
    36    16    34    1
    37    16    35    1
    38    16    36    1
    39    17    37    1
    40    18    38    1
    41    19    39    1
    42    20    40    1
    43    21    41    1
    44    22    42    1
    45    26    43    1
    46    27    44    1
    47    27    45    1
    48    27    46    1
    49    28    47    1
    50    28    48    1
    51    28    49    1
@<TRIPOS>MOLECULE
6918493
 49 51 0 0 0
SMALL
GASTEIGER

@<TRIPOS>ATOM
      1 O          -2.0046    0.2783   -1.9849 O.3     1  LIG1       -0.3632
      2 O           0.8220    0.1613    0.5331 O.3     1  LIG1       -0.4495
      3 O           0.4630    2.7972    0.0327 O.co2   1  LIG1       -0.5459
      4 O           0.2596    2.3984   -2.1978 O.co2   1  LIG1       -0.5459
      5 N           2.7617   -0.5882    1.4826 N.ar    1  LIG1       -0.2002
      6 N           2.8506    0.5558   -0.6005 N.ar    1  LIG1       -0.2002
      7 C          -1.3133    0.0409   -0.7200 C.3     1  LIG1        0.1609
      8 C           0.1801    0.5214   -0.7225 C.3     1  LIG1        0.1791
      9 C          -2.1226    0.8152    0.3630 C.ar    1  LIG1       -0.0075
     10 C          -1.5070   -1.5026   -0.5024 C.ar    1  LIG1       -0.0075
     11 C          -2.0724    0.4447    1.7208 C.ar    1  LIG1       -0.0554
     12 C          -0.4446   -2.4143   -0.3809 C.ar    1  LIG1       -0.0554
     13 C          -2.9071    1.9323    0.0198 C.ar    1  LIG1       -0.0554
     14 C          -2.8168   -2.0311   -0.4605 C.ar    1  LIG1       -0.0554
     15 C           0.2959    2.0505   -0.9762 C.2     1  LIG1        0.0856
     16 C          -1.3696   -0.1915   -3.1641 C.3     1  LIG1        0.0382
     17 C          -2.8072    1.1376    2.6865 C.ar    1  LIG1       -0.0614
     18 C          -0.6782   -3.7807   -0.1887 C.ar    1  LIG1       -0.0614
     19 C          -3.6367    2.6287    0.9863 C.ar    1  LIG1       -0.0614
     20 C          -3.0512   -3.3959   -0.2734 C.ar    1  LIG1       -0.0614
     21 C          -3.5927    2.2265    2.3185 C.ar    1  LIG1       -0.0617
     22 C          -1.9792   -4.2709   -0.1319 C.ar    1  LIG1       -0.0617
     23 C           2.1941    0.0887    0.4694 C.ar    1  LIG1        0.3191
     24 C           4.0980   -0.7389    1.4314 C.ar    1  LIG1        0.0453
     25 C           4.1870    0.4270   -0.6054 C.ar    1  LIG1        0.0453
     26 C           4.8646   -0.2324    0.3993 C.ar    1  LIG1       -0.0193
     27 C           4.7429   -1.5032    2.5472 C.3     1  LIG1       -0.0221
     28 C           4.9240    1.0270   -1.7622 C.3     1  LIG1       -0.0221
     29 H           0.6979    0.0057   -1.5420 H       1  LIG1        0.0834
     30 H          -1.4410   -0.3836    2.0354 H       1  LIG1        0.0621
     31 H           0.5892   -2.0869   -0.4304 H       1  LIG1        0.0621
     32 H          -2.9229    2.2870   -1.0097 H       1  LIG1        0.0621
     33 H          -3.6666   -1.3591   -0.5758 H       1  LIG1        0.0621
     34 H          -2.0588   -0.0268   -3.9977 H       1  LIG1        0.0524
     35 H          -1.1608   -1.2633   -3.1154 H       1  LIG1        0.0524
     36 H          -0.4536    0.3552   -3.3883 H       1  LIG1        0.0524
     37 H          -2.7432    0.8370    3.7276 H       1  LIG1        0.0618
     38 H           0.1657   -4.4568   -0.0825 H       1  LIG1        0.0618
     39 H          -4.2136    3.5005    0.6944 H       1  LIG1        0.0618
     40 H          -4.0709   -3.7669   -0.2377 H       1  LIG1        0.0618
     41 H          -4.1454    2.7796    3.0709 H       1  LIG1        0.0618
     42 H          -2.1557   -5.3305    0.0195 H       1  LIG1        0.0618
     43 H           5.9400   -0.3463    0.3782 H       1  LIG1        0.0653
     44 H           3.9982   -1.8228    3.2829 H       1  LIG1        0.0293
     45 H           5.4822   -0.8792    3.0580 H       1  LIG1        0.0293
     46 H           5.2364   -2.3975    2.1538 H       1  LIG1        0.0293
     47 H           4.2388    1.5626   -2.4274 H       1  LIG1        0.0293
     48 H           5.4209    0.2430   -2.3416 H       1  LIG1        0.0293
     49 H           5.6739    1.7399   -1.4049 H       1  LIG1        0.0293
@<TRIPOS>BOND
     1     1     7    1
     2     1    16    1
     3     2     8    1
     4     2    23    1
     5     3    15   ar
     6     4    15   ar
     7     5    23   ar
     8     5    24   ar
     9     6    23   ar
    10     6    25   ar
    11     7     8    1
    12     7     9    1
    13     7    10    1
    14     8    15    1
    15     9    11   ar
    16     9    13   ar
    17    10    12   ar
    18    10    14   ar
    19    11    17   ar
    20    12    18   ar
    21    13    19   ar
    22    14    20   ar
    23    17    21   ar
    24    18    22   ar
    25    19    21   ar
    26    20    22   ar
    27    24    26   ar
    28    24    27    1
    29    25    26   ar
    30    25    28    1
    31     8    29    1
    32    11    30    1
    33    12    31    1
    34    13    32    1
    35    14    33    1
    36    16    34    1
    37    16    35    1
    38    16    36    1
    39    17    37    1
    40    18    38    1
    41    19    39    1
    42    20    40    1
    43    21    41    1
    44    22    42    1
    45    26    43    1
    46    27    44    1
    47    27    45    1
    48    27    46    1
    49    28    47    1
    50    28    48    1
    51    28    49    1
@<TRIPOS>MOLECULE
6918493
 49 51 0 0 0
SMALL
GASTEIGER

@<TRIPOS>ATOM
      1 O          -2.0259    0.2536   -1.9610 O.3     1  LIG1       -0.3632
      2 O           0.8345    0.1503    0.5261 O.3     1  LIG1       -0.4495
      3 O           0.4595    2.7643   -0.1690 O.co2   1  LIG1       -0.5459
      4 O           0.5043    2.1666   -2.3583 O.co2   1  LIG1       -0.5459
      5 N           2.8825    0.4709    1.5258 N.ar    1  LIG1       -0.2002
      6 N           2.7537   -0.4741   -0.6557 N.ar    1  LIG1       -0.2002
      7 C          -1.3222    0.0086   -0.7034 C.3     1  LIG1        0.1609
      8 C           0.1820    0.4387   -0.7467 C.3     1  LIG1        0.1791
      9 C          -2.0931    0.8187    0.3798 C.ar    1  LIG1       -0.0075
     10 C          -1.5483   -1.5269   -0.4596 C.ar    1  LIG1       -0.0075
     11 C          -2.8478    1.9553    0.0345 C.ar    1  LIG1       -0.0554
     12 C          -0.5028   -2.4566   -0.3260 C.ar    1  LIG1       -0.0554
     13 C          -2.0496    0.4532    1.7392 C.ar    1  LIG1       -0.0554
     14 C          -2.8682   -2.0292   -0.4102 C.ar    1  LIG1       -0.0554
     15 C           0.3734    1.9317   -1.1174 C.2     1  LIG1        0.0856
     16 C          -1.4468   -0.2814   -3.1417 C.3     1  LIG1        0.0382
     17 C          -3.5584    2.6736    0.9997 C.ar    1  LIG1       -0.0614
     18 C          -0.7614   -3.8168   -0.1255 C.ar    1  LIG1       -0.0614
     19 C          -2.7656    1.1677    2.7037 C.ar    1  LIG1       -0.0614
     20 C          -3.1269   -3.3878   -0.2129 C.ar    1  LIG1       -0.0614
     21 C          -3.5246    2.2744    2.3328 C.ar    1  LIG1       -0.0617
     22 C          -2.0715   -4.2818   -0.0665 C.ar    1  LIG1       -0.0617
     23 C           2.2074    0.1166    0.4223 C.ar    1  LIG1        0.3191
     24 C           4.2220    0.3604    1.4721 C.ar    1  LIG1        0.0453
     25 C           4.0925   -0.5822   -0.6760 C.ar    1  LIG1        0.0453
     26 C           4.8808   -0.1667    0.3776 C.ar    1  LIG1       -0.0193
     27 C           4.9963    0.8293    2.6652 C.3     1  LIG1       -0.0221
     28 C           4.7083   -1.1927   -1.8965 C.3     1  LIG1       -0.0221
     29 H           0.6592   -0.1453   -1.5435 H       1  LIG1        0.0834
     30 H          -2.8590    2.3053   -0.9963 H       1  LIG1        0.0621
     31 H           0.5369   -2.1486   -0.3793 H       1  LIG1        0.0621
     32 H          -1.4416   -0.3913    2.0562 H       1  LIG1        0.0621
     33 H          -3.7046   -1.3419   -0.5322 H       1  LIG1        0.0621
     34 H          -2.1407   -0.0884   -3.9653 H       1  LIG1        0.0524
     35 H          -1.3075   -1.3634   -3.0750 H       1  LIG1        0.0524
     36 H          -0.5020    0.1979   -3.3963 H       1  LIG1        0.0524
     37 H          -4.1151    3.5576    0.7048 H       1  LIG1        0.0618
     38 H           0.0700   -4.5079   -0.0177 H       1  LIG1        0.0618
     39 H          -2.7102    0.8676    3.7453 H       1  LIG1        0.0618
     40 H          -4.1532   -3.7402   -0.1758 H       1  LIG1        0.0618
     41 H          -4.0648    2.8419    3.0833 H       1  LIG1        0.0618
     42 H          -2.2676   -5.3381    0.0886 H       1  LIG1        0.0618
     43 H           5.9585   -0.2518    0.3491 H       1  LIG1        0.0653
     44 H           4.3298    1.2542    3.4225 H       1  LIG1        0.0293
     45 H           5.7128    1.6028    2.3712 H       1  LIG1        0.0293
     46 H           5.5373   -0.0080    3.1169 H       1  LIG1        0.0293
     47 H           3.9418   -1.4392   -2.6387 H       1  LIG1        0.0293
     48 H           5.2336   -2.1158   -1.6321 H       1  LIG1        0.0293
     49 H           5.4148   -0.4951   -2.3562 H       1  LIG1        0.0293
@<TRIPOS>BOND
     1     1     7    1
     2     1    16    1
     3     2     8    1
     4     2    23    1
     5     3    15   ar
     6     4    15   ar
     7     5    23   ar
     8     5    24   ar
     9     6    23   ar
    10     6    25   ar
    11     7     8    1
    12     7     9    1
    13     7    10    1
    14     8    15    1
    15     9    11   ar
    16     9    13   ar
    17    10    12   ar
    18    10    14   ar
    19    11    17   ar
    20    12    18   ar
    21    13    19   ar
    22    14    20   ar
    23    17    21   ar
    24    18    22   ar
    25    19    21   ar
    26    20    22   ar
    27    24    26   ar
    28    24    27    1
    29    25    26   ar
    30    25    28    1
    31     8    29    1
    32    11    30    1
    33    12    31    1
    34    13    32    1
    35    14    33    1
    36    16    34    1
    37    16    35    1
    38    16    36    1
    39    17    37    1
    40    18    38    1
    41    19    39    1
    42    20    40    1
    43    21    41    1
    44    22    42    1
    45    26    43    1
    46    27    44    1
    47    27    45    1
    48    27    46    1
    49    28    47    1
    50    28    48    1
    51    28    49    1
@<TRIPOS>MOLECULE
6918493
 49 51 0 0 0
SMALL
GASTEIGER

@<TRIPOS>ATOM
      1 O          -1.9992    0.2255   -1.9810 O.3     1  LIG1       -0.3632
      2 O           0.8346    0.2408    0.5316 O.3     1  LIG1       -0.4495
      3 O           0.3611    2.8501   -0.0331 O.co2   1  LIG1       -0.5459
      4 O           0.2476    2.3783   -2.2570 O.co2   1  LIG1       -0.5459
      5 N           2.8573    0.6246   -0.6163 N.ar    1  LIG1       -0.2002
      6 N           2.7676   -0.5642    1.4429 N.ar    1  LIG1       -0.2002
      7 C          -1.3133    0.0425   -0.7035 C.3     1  LIG1        0.1609
      8 C           0.1733    0.5483   -0.7271 C.3     1  LIG1        0.1791
      9 C          -2.1472    0.8228    0.3592 C.ar    1  LIG1       -0.0075
     10 C          -1.4814   -1.4958   -0.4335 C.ar    1  LIG1       -0.0075
     11 C          -1.9390    0.6191    1.7375 C.ar    1  LIG1       -0.0554
     12 C          -2.7834   -2.0435   -0.3696 C.ar    1  LIG1       -0.0554
     13 C          -3.1328    1.7527   -0.0197 C.ar    1  LIG1       -0.0554
     14 C          -0.4048   -2.3884   -0.2978 C.ar    1  LIG1       -0.0554
     15 C           0.2498    2.0696   -1.0234 C.2     1  LIG1        0.0856
     16 C          -1.3542   -0.2764   -3.1408 C.3     1  LIG1        0.0382
     17 C          -2.6917    1.3056    2.6931 C.ar    1  LIG1       -0.0614
     18 C          -2.9957   -3.4069   -0.1539 C.ar    1  LIG1       -0.0614
     19 C          -3.8928    2.4334    0.9367 C.ar    1  LIG1       -0.0614
     20 C          -0.6169   -3.7534   -0.0765 C.ar    1  LIG1       -0.0614
     21 C          -3.6730    2.2090    2.2924 C.ar    1  LIG1       -0.0617
     22 C          -1.9102   -4.2627   -0.0032 C.ar    1  LIG1       -0.0617
     23 C           2.2029    0.1437    0.4487 C.ar    1  LIG1        0.3191
     24 C           4.1894    0.4619   -0.6419 C.ar    1  LIG1        0.0453
     25 C           4.0992   -0.7454    1.3712 C.ar    1  LIG1        0.0453
     26 C           4.8637   -0.2362    0.3399 C.ar    1  LIG1       -0.0193
     27 C           4.9273    1.0658   -1.7960 C.3     1  LIG1       -0.0221
     28 C           4.7384   -1.5489    2.4624 C.3     1  LIG1       -0.0221
     29 H           0.6969    0.0198   -1.5349 H       1  LIG1        0.0834
     30 H          -1.1670   -0.0688    2.0758 H       1  LIG1        0.0621
     31 H          -3.6444   -1.3883   -0.4963 H       1  LIG1        0.0621
     32 H          -3.3003    1.9706   -1.0721 H       1  LIG1        0.0621
     33 H           0.6229   -2.0469   -0.3628 H       1  LIG1        0.0621
     34 H          -2.0410   -0.1461   -3.9826 H       1  LIG1        0.0524
     35 H          -1.1355   -1.3443   -3.0560 H       1  LIG1        0.0524
     36 H          -0.4427    0.2722   -3.3801 H       1  LIG1        0.0524
     37 H          -2.4926    1.1476    3.7480 H       1  LIG1        0.0618
     38 H          -4.0117   -3.7926   -0.1062 H       1  LIG1        0.0618
     39 H          -4.6366    3.1554    0.6135 H       1  LIG1        0.0618
     40 H           0.2366   -4.4146    0.0366 H       1  LIG1        0.0618
     41 H          -4.2469    2.7557    3.0343 H       1  LIG1        0.0618
     42 H          -2.0693   -5.3224    0.1676 H       1  LIG1        0.0618
     43 H           5.9354   -0.3767    0.3010 H       1  LIG1        0.0653
     44 H           4.2455    1.6183   -2.4504 H       1  LIG1        0.0293
     45 H           5.4097    0.2821   -2.3879 H       1  LIG1        0.0293
     46 H           5.6893    1.7636   -1.4344 H       1  LIG1        0.0293
     47 H           3.9935   -1.8724    3.1967 H       1  LIG1        0.0293
     48 H           5.4936   -0.9515    2.9819 H       1  LIG1        0.0293
     49 H           5.2113   -2.4428    2.0434 H       1  LIG1        0.0293
@<TRIPOS>BOND
     1     1     7    1
     2     1    16    1
     3     2     8    1
     4     2    23    1
     5     3    15   ar
     6     4    15   ar
     7     5    23   ar
     8     5    24   ar
     9     6    23   ar
    10     6    25   ar
    11     7     8    1
    12     7     9    1
    13     7    10    1
    14     8    15    1
    15     9    11   ar
    16     9    13   ar
    17    10    12   ar
    18    10    14   ar
    19    11    17   ar
    20    12    18   ar
    21    13    19   ar
    22    14    20   ar
    23    17    21   ar
    24    18    22   ar
    25    19    21   ar
    26    20    22   ar
    27    24    26   ar
    28    24    27    1
    29    25    26   ar
    30    25    28    1
    31     8    29    1
    32    11    30    1
    33    12    31    1
    34    13    32    1
    35    14    33    1
    36    16    34    1
    37    16    35    1
    38    16    36    1
    39    17    37    1
    40    18    38    1
    41    19    39    1
    42    20    40    1
    43    21    41    1
    44    22    42    1
    45    26    43    1
    46    27    44    1
    47    27    45    1
    48    27    46    1
    49    28    47    1
    50    28    48    1
    51    28    49    1
@<TRIPOS>MOLECULE
6918493
 49 51 0 0 0
SMALL
GASTEIGER

@<TRIPOS>ATOM
      1 O          -1.9972    0.2599   -1.9596 O.3     1  LIG1       -0.3632
      2 O           0.8115    0.2665    0.5818 O.3     1  LIG1       -0.4495
      3 O           0.4070    2.8707   -0.0549 O.co2   1  LIG1       -0.5459
      4 O           0.2580    2.3537   -2.2654 O.co2   1  LIG1       -0.5459
      5 N           2.8388    0.6546   -0.5531 N.ar    1  LIG1       -0.2002
      6 N           2.7398   -0.5813    1.4757 N.ar    1  LIG1       -0.2002
      7 C          -1.3071    0.0430   -0.6899 C.3     1  LIG1        0.1609
      8 C           0.1748    0.5542   -0.6960 C.3     1  LIG1        0.1791
      9 C          -2.1347    0.8211    0.3765 C.ar    1  LIG1       -0.0075
     10 C          -1.4675   -1.5027   -0.4576 C.ar    1  LIG1       -0.0075
     11 C          -2.1803    0.4113    1.7233 C.ar    1  LIG1       -0.0554
     12 C          -2.7639   -2.0655   -0.4570 C.ar    1  LIG1       -0.0554
     13 C          -2.8330    1.9923    0.0277 C.ar    1  LIG1       -0.0554
     14 C          -0.3873   -2.3840   -0.2827 C.ar    1  LIG1       -0.0554
     15 C           0.2755    2.0694   -1.0253 C.2     1  LIG1        0.0856
     16 C          -1.3741   -0.2529   -3.1274 C.3     1  LIG1        0.0382
     17 C          -2.9289    1.1187    2.6685 C.ar    1  LIG1       -0.0614
     18 C          -2.9687   -3.4352   -0.2671 C.ar    1  LIG1       -0.0614
     19 C          -3.5683    2.7075    0.9759 C.ar    1  LIG1       -0.0614
     20 C          -0.5910   -3.7546   -0.0876 C.ar    1  LIG1       -0.0614
     21 C          -3.6244    2.2653    2.2944 C.ar    1  LIG1       -0.0617
     22 C          -1.8797   -4.2793   -0.0781 C.ar    1  LIG1       -0.0617
     23 C           2.1821    0.1586    0.5027 C.ar    1  LIG1        0.3191
     24 C           4.1670    0.4678   -0.5968 C.ar    1  LIG1        0.0453
     25 C           4.0684   -0.7839    1.3875 C.ar    1  LIG1        0.0453
     26 C           4.8357   -0.2635    0.3624 C.ar    1  LIG1       -0.0193
     27 C           4.9006    1.0834   -1.7476 C.3     1  LIG1       -0.0221
     28 C           4.7029   -1.6266    2.4514 C.3     1  LIG1       -0.0221
     29 H           0.7102    0.0092   -1.4858 H       1  LIG1        0.0834
     30 H          -1.6161   -0.4600    2.0477 H       1  LIG1        0.0621
     31 H          -3.6260   -1.4167   -0.6104 H       1  LIG1        0.0621
     32 H          -2.7688    2.3770   -0.9899 H       1  LIG1        0.0621
     33 H           0.6383   -2.0307   -0.2932 H       1  LIG1        0.0621
     34 H          -2.0219   -0.0190   -3.9775 H       1  LIG1        0.0524
     35 H          -1.2699   -1.3403   -3.0842 H       1  LIG1        0.0524
     36 H          -0.4034    0.2030   -3.3235 H       1  LIG1        0.0524
     37 H          -2.9447    0.7833    3.7010 H       1  LIG1        0.0618
     38 H          -3.9784   -3.8331   -0.2682 H       1  LIG1        0.0618
     39 H          -4.0696    3.6247    0.6809 H       1  LIG1        0.0618
     40 H           0.2658   -4.4063    0.0576 H       1  LIG1        0.0618
     41 H          -4.1830    2.8306    3.0328 H       1  LIG1        0.0618
     42 H          -2.0337   -5.3431    0.0735 H       1  LIG1        0.0618
     43 H           5.9041   -0.4247    0.3101 H       1  LIG1        0.0653
     44 H           4.2166    1.6463   -2.3912 H       1  LIG1        0.0293
     45 H           5.3751    0.3049   -2.3532 H       1  LIG1        0.0293
     46 H           5.6675    1.7733   -1.3827 H       1  LIG1        0.0293
     47 H           3.9568   -1.9665    3.1774 H       1  LIG1        0.0293
     48 H           5.4648   -1.0527    2.9871 H       1  LIG1        0.0293
     49 H           5.1664   -2.5112    2.0037 H       1  LIG1        0.0293
@<TRIPOS>BOND
     1     1     7    1
     2     1    16    1
     3     2     8    1
     4     2    23    1
     5     3    15   ar
     6     4    15   ar
     7     5    23   ar
     8     5    24   ar
     9     6    23   ar
    10     6    25   ar
    11     7     8    1
    12     7     9    1
    13     7    10    1
    14     8    15    1
    15     9    11   ar
    16     9    13   ar
    17    10    12   ar
    18    10    14   ar
    19    11    17   ar
    20    12    18   ar
    21    13    19   ar
    22    14    20   ar
    23    17    21   ar
    24    18    22   ar
    25    19    21   ar
    26    20    22   ar
    27    24    26   ar
    28    24    27    1
    29    25    26   ar
    30    25    28    1
    31     8    29    1
    32    11    30    1
    33    12    31    1
    34    13    32    1
    35    14    33    1
    36    16    34    1
    37    16    35    1
    38    16    36    1
    39    17    37    1
    40    18    38    1
    41    19    39    1
    42    20    40    1
    43    21    41    1
    44    22    42    1
    45    26    43    1
    46    27    44    1
    47    27    45    1
    48    27    46    1
    49    28    47    1
    50    28    48    1
    51    28    49    1
@<TRIPOS>MOLECULE
6918493
 49 51 0 0 0
SMALL
GASTEIGER

@<TRIPOS>ATOM
      1 O          -1.9663    0.2261   -1.9740 O.3     1  LIG1       -0.3632
      2 O           0.8395    0.3275    0.5720 O.3     1  LIG1       -0.4495
      3 O           0.3463    2.9000   -0.0912 O.co2   1  LIG1       -0.5459
      4 O           0.2831    2.3386   -2.2911 O.co2   1  LIG1       -0.5459
      5 N           2.6834   -0.4250   -0.6446 N.ar    1  LIG1       -0.2002
      6 N           2.9281    0.5500    1.5089 N.ar    1  LIG1       -0.2002
      7 C          -1.3179    0.0510   -0.6718 C.3     1  LIG1        0.1609
      8 C           0.1588    0.5755   -0.6905 C.3     1  LIG1        0.1791
      9 C          -2.1611    0.8283    0.3824 C.ar    1  LIG1       -0.0075
     10 C          -1.4773   -1.4833   -0.3972 C.ar    1  LIG1       -0.0075
     11 C          -3.2336    1.6581    0.0094 C.ar    1  LIG1       -0.0554
     12 C          -2.7709   -2.0518   -0.3991 C.ar    1  LIG1       -0.0554
     13 C          -1.8621    0.7307    1.7559 C.ar    1  LIG1       -0.0554
     14 C          -0.3935   -2.3603   -0.2333 C.ar    1  LIG1       -0.0554
     15 C           0.2414    2.0830   -1.0447 C.2     1  LIG1        0.0856
     16 C          -1.3185   -0.3622   -3.0975 C.3     1  LIG1        0.0382
     17 C          -3.9661    2.3668    0.9674 C.ar    1  LIG1       -0.0614
     18 C          -2.9662   -3.4262   -0.2423 C.ar    1  LIG1       -0.0614
     19 C          -2.5806    1.4535    2.7108 C.ar    1  LIG1       -0.0614
     20 C          -0.5876   -3.7351   -0.0671 C.ar    1  LIG1       -0.0614
     21 C          -3.6343    2.2709    2.3164 C.ar    1  LIG1       -0.0617
     22 C          -1.8722   -4.2684   -0.0751 C.ar    1  LIG1       -0.0617
     23 C           2.2018    0.2214    0.4311 C.ar    1  LIG1        0.3191
     24 C           4.0045   -0.6371   -0.6987 C.ar    1  LIG1        0.0453
     25 C           4.2521    0.3369    1.4252 C.ar    1  LIG1        0.0453
     26 C           4.8457   -0.2596    0.3271 C.ar    1  LIG1       -0.0193
     27 C           4.5285   -1.3126   -1.9264 C.3     1  LIG1       -0.0221
     28 C           5.0881    0.7746    2.5878 C.3     1  LIG1       -0.0221
     29 H           0.6758    0.0442   -1.4943 H       1  LIG1        0.0834
     30 H          -3.4894    1.7798   -1.0407 H       1  LIG1        0.0621
     31 H          -3.6366   -1.4090   -0.5528 H       1  LIG1        0.0621
     32 H          -1.0346    0.1110    2.0929 H       1  LIG1        0.0621
     33 H           0.6290   -2.0015   -0.2514 H       1  LIG1        0.0621
     34 H          -1.9180   -0.1398   -3.9846 H       1  LIG1        0.0524
     35 H          -1.2626   -1.4507   -3.0063 H       1  LIG1        0.0524
     36 H          -0.3220    0.0434   -3.2771 H       1  LIG1        0.0524
     37 H          -4.7756    3.0168    0.6504 H       1  LIG1        0.0618
     38 H          -3.9728   -3.8323   -0.2632 H       1  LIG1        0.0618
     39 H          -2.2912    1.3937    3.7554 H       1  LIG1        0.0618
     40 H           0.2751   -4.3836    0.0558 H       1  LIG1        0.0618
     41 H          -4.1777    2.8504    3.0553 H       1  LIG1        0.0618
     42 H          -2.0178   -5.3376    0.0406 H       1  LIG1        0.0618
     43 H           5.9118   -0.4252    0.2750 H       1  LIG1        0.0653
     44 H           3.7137   -1.5434   -2.6219 H       1  LIG1        0.0293
     45 H           5.0205   -2.2535   -1.6618 H       1  LIG1        0.0293
     46 H           5.2404   -0.6626   -2.4432 H       1  LIG1        0.0293
     47 H           4.4664    1.2299    3.3653 H       1  LIG1        0.0293
     48 H           5.8250    1.5154    2.2627 H       1  LIG1        0.0293
     49 H           5.6074   -0.0838    3.0242 H       1  LIG1        0.0293
@<TRIPOS>BOND
     1     1     7    1
     2     1    16    1
     3     2     8    1
     4     2    23    1
     5     3    15   ar
     6     4    15   ar
     7     5    23   ar
     8     5    24   ar
     9     6    23   ar
    10     6    25   ar
    11     7     8    1
    12     7     9    1
    13     7    10    1
    14     8    15    1
    15     9    11   ar
    16     9    13   ar
    17    10    12   ar
    18    10    14   ar
    19    11    17   ar
    20    12    18   ar
    21    13    19   ar
    22    14    20   ar
    23    17    21   ar
    24    18    22   ar
    25    19    21   ar
    26    20    22   ar
    27    24    26   ar
    28    24    27    1
    29    25    26   ar
    30    25    28    1
    31     8    29    1
    32    11    30    1
    33    12    31    1
    34    13    32    1
    35    14    33    1
    36    16    34    1
    37    16    35    1
    38    16    36    1
    39    17    37    1
    40    18    38    1
    41    19    39    1
    42    20    40    1
    43    21    41    1
    44    22    42    1
    45    26    43    1
    46    27    44    1
    47    27    45    1
    48    27    46    1
    49    28    47    1
    50    28    48    1
    51    28    49    1
@<TRIPOS>MOLECULE
6918493
 49 51 0 0 0
SMALL
GASTEIGER

@<TRIPOS>ATOM
      1 O          -2.0081    0.2192   -1.9907 O.3     1  LIG1       -0.3632
      2 O           0.8310    0.1887    0.5148 O.3     1  LIG1       -0.4495
      3 O           0.4043    2.8127    0.0023 O.co2   1  LIG1       -0.5459
      4 O           0.2258    2.3904   -2.2278 O.co2   1  LIG1       -0.5459
      5 N           2.7782   -0.5592    1.4470 N.ar    1  LIG1       -0.2002
      6 N           2.8495    0.5863   -0.6365 N.ar    1  LIG1       -0.2002
      7 C          -1.3174    0.0286   -0.7176 C.3     1  LIG1        0.1609
      8 C           0.1710    0.5270   -0.7369 C.3     1  LIG1        0.1791
      9 C          -2.1413    0.8110    0.3499 C.ar    1  LIG1       -0.0075
     10 C          -1.4939   -1.5103   -0.4569 C.ar    1  LIG1       -0.0075
     11 C          -3.0703    1.8001   -0.0234 C.ar    1  LIG1       -0.0554
     12 C          -0.4220   -2.4118   -0.3439 C.ar    1  LIG1       -0.0554
     13 C          -1.9758    0.5567    1.7252 C.ar    1  LIG1       -0.0554
     14 C          -2.7985   -2.0477   -0.3716 C.ar    1  LIG1       -0.0554
     15 C           0.2576    2.0536   -1.0022 C.2     1  LIG1        0.0856
     16 C          -1.3566   -0.2586   -3.1571 C.3     1  LIG1        0.0382
     17 C          -3.8223    2.4850    0.9347 C.ar    1  LIG1       -0.0614
     18 C          -0.6407   -3.7753   -0.1178 C.ar    1  LIG1       -0.0614
     19 C          -2.7248    1.2447    2.6834 C.ar    1  LIG1       -0.0614
     20 C          -3.0174   -3.4092   -0.1500 C.ar    1  LIG1       -0.0614
     21 C          -3.6526    2.2043    2.2876 C.ar    1  LIG1       -0.0617
     22 C          -1.9363   -4.2732   -0.0176 C.ar    1  LIG1       -0.0617
     23 C           2.2024    0.1169    0.4379 C.ar    1  LIG1        0.3191
     24 C           4.1139   -0.7111    1.3849 C.ar    1  LIG1        0.0453
     25 C           4.1857    0.4551   -0.6526 C.ar    1  LIG1        0.0453
     26 C           4.8716   -0.2052    0.3464 C.ar    1  LIG1       -0.0193
     27 C           4.7666   -1.4753    2.4953 C.3     1  LIG1       -0.0221
     28 C           4.9150    1.0536   -1.8155 C.3     1  LIG1       -0.0221
     29 H           0.6898    0.0115   -1.5559 H       1  LIG1        0.0834
     30 H          -3.1942    2.0610   -1.0726 H       1  LIG1        0.0621
     31 H           0.6072   -2.0778   -0.4286 H       1  LIG1        0.0621
     32 H          -1.2419   -0.1740    2.0586 H       1  LIG1        0.0621
     33 H          -3.6565   -1.3853   -0.4814 H       1  LIG1        0.0621
     34 H          -2.0583   -0.1607   -3.9909 H       1  LIG1        0.0524
     35 H          -1.0886   -1.3150   -3.0729 H       1  LIG1        0.0524
     36 H          -0.4739    0.3306   -3.4071 H       1  LIG1        0.0524
     37 H          -4.5202    3.2537    0.6176 H       1  LIG1        0.0618
     38 H           0.2105   -4.4434   -0.0197 H       1  LIG1        0.0618
     39 H          -2.5633    1.0416    3.7374 H       1  LIG1        0.0618
     40 H          -4.0335   -3.7863   -0.0812 H       1  LIG1        0.0618
     41 H          -4.2216    2.7517    3.0321 H       1  LIG1        0.0618
     42 H          -2.1011   -5.3310    0.1599 H       1  LIG1        0.0618
     43 H           5.9465   -0.3204    0.3158 H       1  LIG1        0.0653
     44 H           4.0272   -1.7957    3.2366 H       1  LIG1        0.0293
     45 H           5.5094   -0.8515    3.0016 H       1  LIG1        0.0293
     46 H           5.2576   -2.3695    2.0985 H       1  LIG1        0.0293
     47 H           4.2250    1.5864   -2.4781 H       1  LIG1        0.0293
     48 H           5.4098    0.2687   -2.3958 H       1  LIG1        0.0293
     49 H           5.6661    1.7683   -1.4643 H       1  LIG1        0.0293
@<TRIPOS>BOND
     1     1     7    1
     2     1    16    1
     3     2     8    1
     4     2    23    1
     5     3    15   ar
     6     4    15   ar
     7     5    23   ar
     8     5    24   ar
     9     6    23   ar
    10     6    25   ar
    11     7     8    1
    12     7     9    1
    13     7    10    1
    14     8    15    1
    15     9    11   ar
    16     9    13   ar
    17    10    12   ar
    18    10    14   ar
    19    11    17   ar
    20    12    18   ar
    21    13    19   ar
    22    14    20   ar
    23    17    21   ar
    24    18    22   ar
    25    19    21   ar
    26    20    22   ar
    27    24    26   ar
    28    24    27    1
    29    25    26   ar
    30    25    28    1
    31     8    29    1
    32    11    30    1
    33    12    31    1
    34    13    32    1
    35    14    33    1
    36    16    34    1
    37    16    35    1
    38    16    36    1
    39    17    37    1
    40    18    38    1
    41    19    39    1
    42    20    40    1
    43    21    41    1
    44    22    42    1
    45    26    43    1
    46    27    44    1
    47    27    45    1
    48    27    46    1
    49    28    47    1
    50    28    48    1
    51    28    49    1
@<TRIPOS>MOLECULE
6918493
 49 51 0 0 0
SMALL
GASTEIGER

@<TRIPOS>ATOM
      1 O          -1.9868    0.2570   -1.9589 O.3     1  LIG1       -0.3632
      2 O           0.8101    0.2945    0.5952 O.3     1  LIG1       -0.4495
      3 O           0.3942    2.8908   -0.0728 O.co2   1  LIG1       -0.5459
      4 O           0.2545    2.3460   -2.2771 O.co2   1  LIG1       -0.5459
      5 N           2.8362    0.6806   -0.5425 N.ar    1  LIG1       -0.2002
      6 N           2.7372   -0.5724    1.4757 N.ar    1  LIG1       -0.2002
      7 C          -1.3044    0.0455   -0.6836 C.3     1  LIG1        0.1609
      8 C           0.1752    0.5648   -0.6873 C.3     1  LIG1        0.1791
      9 C          -2.1378    0.8219    0.3793 C.ar    1  LIG1       -0.0075
     10 C          -1.4595   -1.4998   -0.4491 C.ar    1  LIG1       -0.0075
     11 C          -2.2065    0.3998    1.7216 C.ar    1  LIG1       -0.0554
     12 C          -0.3780   -2.3754   -0.2584 C.ar    1  LIG1       -0.0554
     13 C          -2.8151    2.0065    0.0345 C.ar    1  LIG1       -0.0554
     14 C          -2.7539   -2.0690   -0.4664 C.ar    1  LIG1       -0.0554
     15 C           0.2700    2.0764   -1.0344 C.2     1  LIG1        0.0856
     16 C          -1.3601   -0.2723   -3.1180 C.3     1  LIG1        0.0382
     17 C          -2.9540    1.1089    2.6658 C.ar    1  LIG1       -0.0614
     18 C          -0.5783   -3.7469   -0.0675 C.ar    1  LIG1       -0.0614
     19 C          -3.5482    2.7250    0.9822 C.ar    1  LIG1       -0.0614
     20 C          -2.9542   -3.4387   -0.2813 C.ar    1  LIG1       -0.0614
     21 C          -3.6259    2.2710    2.2962 C.ar    1  LIG1       -0.0617
     22 C          -1.8646   -4.2784   -0.0780 C.ar    1  LIG1       -0.0617
     23 C           2.1792    0.1809    0.5122 C.ar    1  LIG1        0.3191
     24 C           4.1603    0.4786   -0.5995 C.ar    1  LIG1        0.0453
     25 C           4.0618   -0.7883    1.3761 C.ar    1  LIG1        0.0453
     26 C           4.8279   -0.2690    0.3488 C.ar    1  LIG1       -0.0193
     27 C           4.8915    1.0936   -1.7520 C.3     1  LIG1       -0.0221
     28 C           4.6944   -1.6454    2.4290 C.3     1  LIG1       -0.0221
     29 H           0.7160    0.0141   -1.4686 H       1  LIG1        0.0834
     30 H          -1.6602   -0.4837    2.0447 H       1  LIG1        0.0621
     31 H           0.6460   -2.0169   -0.2538 H       1  LIG1        0.0621
     32 H          -2.7331    2.4004   -0.9783 H       1  LIG1        0.0621
     33 H          -3.6162   -1.4237   -0.6321 H       1  LIG1        0.0621
     34 H          -1.9906   -0.0307   -3.9775 H       1  LIG1        0.0524
     35 H          -1.2787   -1.3627   -3.0693 H       1  LIG1        0.0524
     36 H          -0.3758    0.1594   -3.3036 H       1  LIG1        0.0524
     37 H          -2.9886    0.7625    3.6940 H       1  LIG1        0.0618
     38 H           0.2794   -4.3950    0.0889 H       1  LIG1        0.0618
     39 H          -4.0285    3.6542    0.6922 H       1  LIG1        0.0618
     40 H          -3.9622   -3.8422   -0.2981 H       1  LIG1        0.0618
     41 H          -4.1822    2.8387    3.0344 H       1  LIG1        0.0618
     42 H          -2.0147   -5.3431    0.0686 H       1  LIG1        0.0618
     43 H           5.8930   -0.4425    0.2864 H       1  LIG1        0.0653
     44 H           4.2060    1.6573   -2.3936 H       1  LIG1        0.0293
     45 H           5.3637    0.3155   -2.3598 H       1  LIG1        0.0293
     46 H           5.6597    1.7830   -1.3887 H       1  LIG1        0.0293
     47 H           3.9475   -1.9926    3.1503 H       1  LIG1        0.0293
     48 H           5.4576   -1.0796    2.9715 H       1  LIG1        0.0293
     49 H           5.1561   -2.5257    1.9705 H       1  LIG1        0.0293
@<TRIPOS>BOND
     1     1     7    1
     2     1    16    1
     3     2     8    1
     4     2    23    1
     5     3    15   ar
     6     4    15   ar
     7     5    23   ar
     8     5    24   ar
     9     6    23   ar
    10     6    25   ar
    11     7     8    1
    12     7     9    1
    13     7    10    1
    14     8    15    1
    15     9    11   ar
    16     9    13   ar
    17    10    12   ar
    18    10    14   ar
    19    11    17   ar
    20    12    18   ar
    21    13    19   ar
    22    14    20   ar
    23    17    21   ar
    24    18    22   ar
    25    19    21   ar
    26    20    22   ar
    27    24    26   ar
    28    24    27    1
    29    25    26   ar
    30    25    28    1
    31     8    29    1
    32    11    30    1
    33    12    31    1
    34    13    32    1
    35    14    33    1
    36    16    34    1
    37    16    35    1
    38    16    36    1
    39    17    37    1
    40    18    38    1
    41    19    39    1
    42    20    40    1
    43    21    41    1
    44    22    42    1
    45    26    43    1
    46    27    44    1
    47    27    45    1
    48    27    46    1
    49    28    47    1
    50    28    48    1
    51    28    49    1
@<TRIPOS>MOLECULE
6918493
 49 51 0 0 0
SMALL
GASTEIGER

@<TRIPOS>ATOM
      1 O          -1.9763    0.2309   -1.9724 O.3     1  LIG1       -0.3632
      2 O           0.8354    0.3097    0.5594 O.3     1  LIG1       -0.4495
      3 O           0.3080    2.8964   -0.0870 O.co2   1  LIG1       -0.5459
      4 O           0.2656    2.3492   -2.2963 O.co2   1  LIG1       -0.5459
      5 N           2.7522   -0.5736    1.4312 N.ar    1  LIG1       -0.2002
      6 N           2.8617    0.6978   -0.5751 N.ar    1  LIG1       -0.2002
      7 C          -1.3050    0.0524   -0.6854 C.3     1  LIG1        0.1609
      8 C           0.1779    0.5696   -0.7100 C.3     1  LIG1        0.1791
      9 C          -2.1495    0.8280    0.3724 C.ar    1  LIG1       -0.0075
     10 C          -1.4632   -1.4851   -0.4118 C.ar    1  LIG1       -0.0075
     11 C          -3.1975    1.6875   -0.0079 C.ar    1  LIG1       -0.0554
     12 C          -2.7593   -2.0484   -0.3968 C.ar    1  LIG1       -0.0554
     13 C          -1.8854    0.6978    1.7494 C.ar    1  LIG1       -0.0554
     14 C          -0.3812   -2.3657   -0.2445 C.ar    1  LIG1       -0.0554
     15 C           0.2379    2.0817   -1.0541 C.2     1  LIG1        0.0856
     16 C          -1.3414   -0.3182   -3.1183 C.3     1  LIG1        0.0382
     17 C          -3.9478    2.3830    0.9448 C.ar    1  LIG1       -0.0614
     18 C          -2.9607   -3.4187   -0.2159 C.ar    1  LIG1       -0.0614
     19 C          -2.6242    1.4059    2.7013 C.ar    1  LIG1       -0.0614
     20 C          -0.5824   -3.7372   -0.0556 C.ar    1  LIG1       -0.0614
     21 C          -3.6578    2.2463    2.2991 C.ar    1  LIG1       -0.0617
     22 C          -1.8698   -4.2640   -0.0435 C.ar    1  LIG1       -0.0617
     23 C           2.2012    0.1860    0.4695 C.ar    1  LIG1        0.3191
     24 C           4.0763   -0.7902    1.3413 C.ar    1  LIG1        0.0453
     25 C           4.1861    0.4958   -0.6227 C.ar    1  LIG1        0.0453
     26 C           4.8482   -0.2612    0.3235 C.ar    1  LIG1       -0.0193
     27 C           4.7000   -1.6549    2.3933 C.3     1  LIG1       -0.0221
     28 C           4.9286    1.1231   -1.7597 C.3     1  LIG1       -0.0221
     29 H           0.7135    0.0245   -1.4972 H       1  LIG1        0.0834
     30 H          -3.4211    1.8415   -1.0616 H       1  LIG1        0.0621
     31 H          -3.6231   -1.4032   -0.5473 H       1  LIG1        0.0621
     32 H          -1.0740    0.0590    2.0927 H       1  LIG1        0.0621
     33 H           0.6444   -2.0108   -0.2661 H       1  LIG1        0.0621
     34 H          -1.9803   -0.1092   -3.9813 H       1  LIG1        0.0524
     35 H          -1.2402   -1.4038   -3.0411 H       1  LIG1        0.0524
     36 H          -0.3696    0.1317   -3.3194 H       1  LIG1        0.0524
     37 H          -4.7381    3.0524    0.6194 H       1  LIG1        0.0618
     38 H          -3.9710   -3.8190   -0.2169 H       1  LIG1        0.0618
     39 H          -2.3693    1.3155    3.7533 H       1  LIG1        0.0618
     40 H           0.2757   -4.3889    0.0763 H       1  LIG1        0.0618
     41 H          -4.2183    2.8118    3.0364 H       1  LIG1        0.0618
     42 H          -2.0218   -5.3299    0.0958 H       1  LIG1        0.0618
     43 H           5.9143   -0.4323    0.2675 H       1  LIG1        0.0653
     44 H           3.9455   -2.0068    3.1064 H       1  LIG1        0.0293
     45 H           5.4583   -1.0949    2.9464 H       1  LIG1        0.0293
     46 H           5.1636   -2.5339    1.9329 H       1  LIG1        0.0293
     47 H           4.2503    1.6938   -2.4031 H       1  LIG1        0.0293
     48 H           5.4098    0.3532   -2.3706 H       1  LIG1        0.0293
     49 H           5.6927    1.8099   -1.3802 H       1  LIG1        0.0293
@<TRIPOS>BOND
     1     1     7    1
     2     1    16    1
     3     2     8    1
     4     2    23    1
     5     3    15   ar
     6     4    15   ar
     7     5    23   ar
     8     5    24   ar
     9     6    23   ar
    10     6    25   ar
    11     7     8    1
    12     7     9    1
    13     7    10    1
    14     8    15    1
    15     9    11   ar
    16     9    13   ar
    17    10    12   ar
    18    10    14   ar
    19    11    17   ar
    20    12    18   ar
    21    13    19   ar
    22    14    20   ar
    23    17    21   ar
    24    18    22   ar
    25    19    21   ar
    26    20    22   ar
    27    24    26   ar
    28    24    27    1
    29    25    26   ar
    30    25    28    1
    31     8    29    1
    32    11    30    1
    33    12    31    1
    34    13    32    1
    35    14    33    1
    36    16    34    1
    37    16    35    1
    38    16    36    1
    39    17    37    1
    40    18    38    1
    41    19    39    1
    42    20    40    1
    43    21    41    1
    44    22    42    1
    45    26    43    1
    46    27    44    1
    47    27    45    1
    48    27    46    1
    49    28    47    1
    50    28    48    1
    51    28    49    1
@<TRIPOS>MOLECULE
6918493
 49 51 0 0 0
SMALL
GASTEIGER

@<TRIPOS>ATOM
      1 O          -2.0031    0.2243   -1.9834 O.3     1  LIG1       -0.3632
      2 O           0.8340    0.2035    0.5252 O.3     1  LIG1       -0.4495
      3 O           0.3979    2.8232   -0.0005 O.co2   1  LIG1       -0.5459
      4 O           0.2338    2.3905   -2.2289 O.co2   1  LIG1       -0.5459
      5 N           2.8534    0.5907   -0.6277 N.ar    1  LIG1       -0.2002
      6 N           2.7766   -0.5583    1.4538 N.ar    1  LIG1       -0.2002
      7 C          -1.3144    0.0350   -0.7083 C.3     1  LIG1        0.1609
      8 C           0.1738    0.5349   -0.7286 C.3     1  LIG1        0.1791
      9 C          -2.1411    0.8173    0.3574 C.ar    1  LIG1       -0.0075
     10 C          -1.4897   -1.5035   -0.4457 C.ar    1  LIG1       -0.0075
     11 C          -3.0874    1.7893   -0.0175 C.ar    1  LIG1       -0.0554
     12 C          -0.4176   -2.4029   -0.3250 C.ar    1  LIG1       -0.0554
     13 C          -1.9635    0.5769    1.7337 C.ar    1  LIG1       -0.0554
     14 C          -2.7942   -2.0425   -0.3669 C.ar    1  LIG1       -0.0554
     15 C           0.2589    2.0607   -1.0015 C.2     1  LIG1        0.0856
     16 C          -1.3521   -0.2597   -3.1479 C.3     1  LIG1        0.0382
     17 C          -3.8426    2.4721    0.9399 C.ar    1  LIG1       -0.0614
     18 C          -0.6359   -3.7669   -0.1000 C.ar    1  LIG1       -0.0614
     19 C          -2.7149    1.2637    2.6912 C.ar    1  LIG1       -0.0614
     20 C          -3.0129   -3.4045   -0.1473 C.ar    1  LIG1       -0.0614
     21 C          -3.6588    2.2066    2.2938 C.ar    1  LIG1       -0.0617
     22 C          -1.9312   -4.2669   -0.0078 C.ar    1  LIG1       -0.0617
     23 C           2.2045    0.1233    0.4465 C.ar    1  LIG1        0.3191
     24 C           4.1888    0.4478   -0.6466 C.ar    1  LIG1        0.0453
     25 C           4.1113   -0.7209    1.3892 C.ar    1  LIG1        0.0453
     26 C           4.8708   -0.2195    0.3496 C.ar    1  LIG1       -0.0193
     27 C           4.9202    1.0416   -1.8105 C.3     1  LIG1       -0.0221
     28 C           4.7601   -1.4922    2.4967 C.3     1  LIG1       -0.0221
     29 H           0.6936    0.0156   -1.5453 H       1  LIG1        0.0834
     30 H          -3.2236    2.0382   -1.0683 H       1  LIG1        0.0621
     31 H           0.6115   -2.0685   -0.4039 H       1  LIG1        0.0621
     32 H          -1.2184   -0.1417    2.0689 H       1  LIG1        0.0621
     33 H          -3.6526   -1.3814   -0.4822 H       1  LIG1        0.0621
     34 H          -2.0498   -0.1538   -3.9837 H       1  LIG1        0.0524
     35 H          -1.0961   -1.3186   -3.0629 H       1  LIG1        0.0524
     36 H          -0.4625    0.3199   -3.3946 H       1  LIG1        0.0524
     37 H          -4.5540    3.2267    0.6207 H       1  LIG1        0.0618
     38 H           0.2161   -4.4339    0.0042 H       1  LIG1        0.0618
     39 H          -2.5427    1.0725    3.7460 H       1  LIG1        0.0618
     40 H          -4.0284   -3.7828   -0.0845 H       1  LIG1        0.0618
     41 H          -4.2301    2.7526    3.0375 H       1  LIG1        0.0618
     42 H          -2.0956   -5.3250    0.1683 H       1  LIG1        0.0618
     43 H           5.9447   -0.3437    0.3167 H       1  LIG1        0.0653
     44 H           4.2330    1.5793   -2.4721 H       1  LIG1        0.0293
     45 H           5.4088    0.2532   -2.3918 H       1  LIG1        0.0293
     46 H           5.6768    1.7509   -1.4602 H       1  LIG1        0.0293
     47 H           4.0195   -1.8082    3.2393 H       1  LIG1        0.0293
     48 H           5.5087   -0.8747    3.0030 H       1  LIG1        0.0293
     49 H           5.2434   -2.3894    2.0979 H       1  LIG1        0.0293
@<TRIPOS>BOND
     1     1     7    1
     2     1    16    1
     3     2     8    1
     4     2    23    1
     5     3    15   ar
     6     4    15   ar
     7     5    23   ar
     8     5    24   ar
     9     6    23   ar
    10     6    25   ar
    11     7     8    1
    12     7     9    1
    13     7    10    1
    14     8    15    1
    15     9    11   ar
    16     9    13   ar
    17    10    12   ar
    18    10    14   ar
    19    11    17   ar
    20    12    18   ar
    21    13    19   ar
    22    14    20   ar
    23    17    21   ar
    24    18    22   ar
    25    19    21   ar
    26    20    22   ar
    27    24    26   ar
    28    24    27    1
    29    25    26   ar
    30    25    28    1
    31     8    29    1
    32    11    30    1
    33    12    31    1
    34    13    32    1
    35    14    33    1
    36    16    34    1
    37    16    35    1
    38    16    36    1
    39    17    37    1
    40    18    38    1
    41    19    39    1
    42    20    40    1
    43    21    41    1
    44    22    42    1
    45    26    43    1
    46    27    44    1
    47    27    45    1
    48    27    46    1
    49    28    47    1
    50    28    48    1
    51    28    49    1
@<TRIPOS>MOLECULE
6918493
 49 51 0 0 0
SMALL
GASTEIGER

@<TRIPOS>ATOM
      1 O          -2.0068    0.2741   -1.9834 O.3     1  LIG1       -0.3632
      2 O           0.8209    0.1614    0.5329 O.3     1  LIG1       -0.4495
      3 O           0.4596    2.7969    0.0300 O.co2   1  LIG1       -0.5459
      4 O           0.2566    2.3959   -2.2001 O.co2   1  LIG1       -0.5459
      5 N           2.7610   -0.5902    1.4806 N.ar    1  LIG1       -0.2002
      6 N           2.8492    0.5563   -0.6015 N.ar    1  LIG1       -0.2002
      7 C          -1.3143    0.0385   -0.7195 C.3     1  LIG1        0.1609
      8 C           0.1783    0.5199   -0.7230 C.3     1  LIG1        0.1791
      9 C          -2.1238    0.8131    0.3638 C.ar    1  LIG1       -0.0075
     10 C          -1.5068   -1.5056   -0.5000 C.ar    1  LIG1       -0.0075
     11 C          -2.9099    1.9286    0.0200 C.ar    1  LIG1       -0.0554
     12 C          -2.8162   -2.0349   -0.4542 C.ar    1  LIG1       -0.0554
     13 C          -2.0718    0.4440    1.7222 C.ar    1  LIG1       -0.0554
     14 C          -0.4431   -2.4164   -0.3823 C.ar    1  LIG1       -0.0554
     15 C           0.2932    2.0481   -0.9775 C.2     1  LIG1        0.0856
     16 C          -1.3724   -0.1955   -3.1627 C.3     1  LIG1        0.0382
     17 C          -3.6392    2.6254    0.9866 C.ar    1  LIG1       -0.0614
     18 C          -3.0491   -3.3996   -0.2663 C.ar    1  LIG1       -0.0614
     19 C          -2.8063    1.1373    2.6880 C.ar    1  LIG1       -0.0614
     20 C          -0.6756   -3.7830   -0.1897 C.ar    1  LIG1       -0.0614
     21 C          -3.5937    2.2248    2.3194 C.ar    1  LIG1       -0.0617
     22 C          -1.9761   -4.2738   -0.1284 C.ar    1  LIG1       -0.0617
     23 C           2.1935    0.0877    0.4685 C.ar    1  LIG1        0.3191
     24 C           4.0981   -0.7407    1.4284 C.ar    1  LIG1        0.0453
     25 C           4.1856    0.4276   -0.6069 C.ar    1  LIG1        0.0453
     26 C           4.8635   -0.2329    0.3968 C.ar    1  LIG1       -0.0193
     27 C           4.7432   -1.5059    2.5428 C.3     1  LIG1       -0.0221
     28 C           4.9220    1.0297   -1.7633 C.3     1  LIG1       -0.0221
     29 H           0.6963    0.0041   -1.5422 H       1  LIG1        0.0834
     30 H          -2.9272    2.2820   -1.0094 H       1  LIG1        0.0621
     31 H          -3.6669   -1.3627   -0.5670 H       1  LIG1        0.0621
     32 H          -1.4387   -0.3831    2.0372 H       1  LIG1        0.0621
     33 H           0.5897   -2.0885   -0.4355 H       1  LIG1        0.0621
     34 H          -2.0619   -0.0316   -3.9964 H       1  LIG1        0.0524
     35 H          -1.1628   -1.2675   -3.1139 H       1  LIG1        0.0524
     36 H          -0.4564    0.3516   -3.3878 H       1  LIG1        0.0524
     37 H          -4.2178    3.4964    0.6941 H       1  LIG1        0.0618
     38 H          -4.0684   -3.7710   -0.2273 H       1  LIG1        0.0618
     39 H          -2.7411    0.8382    3.7289 H       1  LIG1        0.0618
     40 H           0.1687   -4.4587   -0.0864 H       1  LIG1        0.0618
     41 H          -4.1459    2.7783    3.0717 H       1  LIG1        0.0618
     42 H          -2.1518   -5.3337    0.0232 H       1  LIG1        0.0618
     43 H           5.9391   -0.3458    0.3752 H       1  LIG1        0.0653
     44 H           3.9987   -1.8276    3.2789 H       1  LIG1        0.0293
     45 H           5.4824   -0.8818    3.0551 H       1  LIG1        0.0293
     46 H           5.2377   -2.3995    2.1484 H       1  LIG1        0.0293
     47 H           4.2362    1.5647   -2.4281 H       1  LIG1        0.0293
     48 H           5.4200    0.2464   -2.3433 H       1  LIG1        0.0293
     49 H           5.6709    1.7431   -1.4052 H       1  LIG1        0.0293
@<TRIPOS>BOND
     1     1     7    1
     2     1    16    1
     3     2     8    1
     4     2    23    1
     5     3    15   ar
     6     4    15   ar
     7     5    23   ar
     8     5    24   ar
     9     6    23   ar
    10     6    25   ar
    11     7     8    1
    12     7     9    1
    13     7    10    1
    14     8    15    1
    15     9    11   ar
    16     9    13   ar
    17    10    12   ar
    18    10    14   ar
    19    11    17   ar
    20    12    18   ar
    21    13    19   ar
    22    14    20   ar
    23    17    21   ar
    24    18    22   ar
    25    19    21   ar
    26    20    22   ar
    27    24    26   ar
    28    24    27    1
    29    25    26   ar
    30    25    28    1
    31     8    29    1
    32    11    30    1
    33    12    31    1
    34    13    32    1
    35    14    33    1
    36    16    34    1
    37    16    35    1
    38    16    36    1
    39    17    37    1
    40    18    38    1
    41    19    39    1
    42    20    40    1
    43    21    41    1
    44    22    42    1
    45    26    43    1
    46    27    44    1
    47    27    45    1
    48    27    46    1
    49    28    47    1
    50    28    48    1
    51    28    49    1
@<TRIPOS>MOLECULE
6918493
 49 51 0 0 0
SMALL
GASTEIGER

@<TRIPOS>ATOM
      1 O          -2.0125    0.2232   -1.9872 O.3     1  LIG1       -0.3632
      2 O           0.8290    0.1882    0.5159 O.3     1  LIG1       -0.4495
      3 O           0.4068    2.8121    0.0040 O.co2   1  LIG1       -0.5459
      4 O           0.2224    2.3937   -2.2250 O.co2   1  LIG1       -0.5459
      5 N           2.8467    0.5759   -0.6405 N.ar    1  LIG1       -0.2002
      6 N           2.7764   -0.5537    1.4519 N.ar    1  LIG1       -0.2002
      7 C          -1.3209    0.0316   -0.7147 C.3     1  LIG1        0.1609
      8 C           0.1677    0.5280   -0.7349 C.3     1  LIG1        0.1791
      9 C          -2.1431    0.8140    0.3540 C.ar    1  LIG1       -0.0075
     10 C          -1.4979   -1.5076   -0.4548 C.ar    1  LIG1       -0.0075
     11 C          -3.0758    1.8000   -0.0180 C.ar    1  LIG1       -0.0554
     12 C          -2.8028   -2.0436   -0.3659 C.ar    1  LIG1       -0.0554
     13 C          -1.9734    0.5620    1.7292 C.ar    1  LIG1       -0.0554
     14 C          -0.4266   -2.4100   -0.3466 C.ar    1  LIG1       -0.0554
     15 C           0.2565    2.0548   -0.9989 C.2     1  LIG1        0.0856
     16 C          -1.3619   -0.2536   -3.1545 C.3     1  LIG1        0.0382
     17 C          -3.8271    2.4846    0.9414 C.ar    1  LIG1       -0.0614
     18 C          -3.0224   -3.4054   -0.1461 C.ar    1  LIG1       -0.0614
     19 C          -2.7214    1.2498    2.6886 C.ar    1  LIG1       -0.0614
     20 C          -0.6456   -3.7738   -0.1223 C.ar    1  LIG1       -0.0614
     21 C          -3.6527    2.2063    2.2944 C.ar    1  LIG1       -0.0617
     22 C          -1.9413   -4.2707   -0.0187 C.ar    1  LIG1       -0.0617
     23 C           2.2000    0.1154    0.4384 C.ar    1  LIG1        0.3191
     24 C           4.1827    0.4432   -0.6567 C.ar    1  LIG1        0.0453
     25 C           4.1117   -0.7070    1.3900 C.ar    1  LIG1        0.0453
     26 C           4.8691   -0.2100    0.3467 C.ar    1  LIG1       -0.0193
     27 C           4.9113    1.0316   -1.8249 C.3     1  LIG1       -0.0221
     28 C           4.7652   -1.4630    2.5057 C.3     1  LIG1       -0.0221
     29 H           0.6853    0.0130   -1.5556 H       1  LIG1        0.0834
     30 H          -3.2039    2.0590   -1.0673 H       1  LIG1        0.0621
     31 H          -3.6606   -1.3807   -0.4720 H       1  LIG1        0.0621
     32 H          -1.2371   -0.1668    2.0617 H       1  LIG1        0.0621
     33 H           0.6025   -2.0769   -0.4343 H       1  LIG1        0.0621
     34 H          -2.0641   -0.1543   -3.9876 H       1  LIG1        0.0524
     35 H          -1.0945   -1.3101   -3.0715 H       1  LIG1        0.0524
     36 H          -0.4792    0.3354   -3.4044 H       1  LIG1        0.0524
     37 H          -4.5282    3.2507    0.6249 H       1  LIG1        0.0618
     38 H          -4.0384   -3.7818   -0.0745 H       1  LIG1        0.0618
     39 H          -2.5562    1.0487    3.7423 H       1  LIG1        0.0618
     40 H           0.2051   -4.4427   -0.0279 H       1  LIG1        0.0618
     41 H          -4.2208    2.7533    3.0393 H       1  LIG1        0.0618
     42 H          -2.1066   -5.3290    0.1574 H       1  LIG1        0.0618
     43 H           5.9438   -0.3262    0.3161 H       1  LIG1        0.0653
     44 H           4.2212    1.5600   -2.4910 H       1  LIG1        0.0293
     45 H           5.4046    0.2419   -2.3996 H       1  LIG1        0.0293
     46 H           5.6635    1.7484   -1.4801 H       1  LIG1        0.0293
     47 H           4.0265   -1.7768    3.2505 H       1  LIG1        0.0293
     48 H           5.5094   -0.8360    3.0059 H       1  LIG1        0.0293
     49 H           5.2549   -2.3611    2.1155 H       1  LIG1        0.0293
@<TRIPOS>BOND
     1     1     7    1
     2     1    16    1
     3     2     8    1
     4     2    23    1
     5     3    15   ar
     6     4    15   ar
     7     5    23   ar
     8     5    24   ar
     9     6    23   ar
    10     6    25   ar
    11     7     8    1
    12     7     9    1
    13     7    10    1
    14     8    15    1
    15     9    11   ar
    16     9    13   ar
    17    10    12   ar
    18    10    14   ar
    19    11    17   ar
    20    12    18   ar
    21    13    19   ar
    22    14    20   ar
    23    17    21   ar
    24    18    22   ar
    25    19    21   ar
    26    20    22   ar
    27    24    26   ar
    28    24    27    1
    29    25    26   ar
    30    25    28    1
    31     8    29    1
    32    11    30    1
    33    12    31    1
    34    13    32    1
    35    14    33    1
    36    16    34    1
    37    16    35    1
    38    16    36    1
    39    17    37    1
    40    18    38    1
    41    19    39    1
    42    20    40    1
    43    21    41    1
    44    22    42    1
    45    26    43    1
    46    27    44    1
    47    27    45    1
    48    27    46    1
    49    28    47    1
    50    28    48    1
    51    28    49    1
@<TRIPOS>MOLECULE
6918493
 49 51 0 0 0
SMALL
GASTEIGER

@<TRIPOS>ATOM
      1 O          -2.0023    0.2725   -1.9853 O.3     1  LIG1       -0.3632
      2 O           0.8228    0.1652    0.5345 O.3     1  LIG1       -0.4495
      3 O           0.4577    2.7989    0.0225 O.co2   1  LIG1       -0.5459
      4 O           0.2651    2.3894   -2.2074 O.co2   1  LIG1       -0.5459
      5 N           2.7616   -0.5921    1.4807 N.ar    1  LIG1       -0.2002
      6 N           2.8525    0.5609   -0.5976 N.ar    1  LIG1       -0.2002
      7 C          -1.3112    0.0374   -0.7200 C.3     1  LIG1        0.1609
      8 C           0.1814    0.5195   -0.7235 C.3     1  LIG1        0.1791
      9 C          -2.1215    0.8127    0.3617 C.ar    1  LIG1       -0.0075
     10 C          -1.5034   -1.5063   -0.4995 C.ar    1  LIG1       -0.0075
     11 C          -2.9043    1.9303    0.0168 C.ar    1  LIG1       -0.0554
     12 C          -0.4406   -2.4164   -0.3727 C.ar    1  LIG1       -0.0554
     13 C          -2.0734    0.4427    1.7197 C.ar    1  LIG1       -0.0554
     14 C          -2.8135   -2.0363   -0.4603 C.ar    1  LIG1       -0.0554
     15 C           0.2964    2.0469   -0.9835 C.2     1  LIG1        0.0856
     16 C          -1.3688   -0.2016   -3.1634 C.3     1  LIG1        0.0382
     17 C          -3.6344    2.6281    0.9821 C.ar    1  LIG1       -0.0614
     18 C          -0.6736   -3.7824   -0.1783 C.ar    1  LIG1       -0.0614
     19 C          -2.8088    1.1370    2.6842 C.ar    1  LIG1       -0.0614
     20 C          -3.0467   -3.4005   -0.2712 C.ar    1  LIG1       -0.0614
     21 C          -3.5930    2.2266    2.3144 C.ar    1  LIG1       -0.0617
     22 C          -1.9745   -4.2736   -0.1238 C.ar    1  LIG1       -0.0617
     23 C           2.1950    0.0899    0.4703 C.ar    1  LIG1        0.3191
     24 C           4.0976   -0.7455    1.4284 C.ar    1  LIG1        0.0453
     25 C           4.1883    0.4292   -0.6036 C.ar    1  LIG1        0.0453
     26 C           4.8649   -0.2361    0.3983 C.ar    1  LIG1       -0.0193
     27 C           4.7408   -1.5158    2.5402 C.3     1  LIG1       -0.0221
     28 C           4.9264    1.0327   -1.7580 C.3     1  LIG1       -0.0221
     29 H           0.7006    0.0001   -1.5402 H       1  LIG1        0.0834
     30 H          -2.9183    2.2846   -1.0128 H       1  LIG1        0.0621
     31 H           0.5927   -2.0879   -0.4195 H       1  LIG1        0.0621
     32 H          -1.4431   -0.3858    2.0357 H       1  LIG1        0.0621
     33 H          -3.6633   -1.3651   -0.5796 H       1  LIG1        0.0621
     34 H          -2.0561   -0.0339   -3.9979 H       1  LIG1        0.0524
     35 H          -1.1662   -1.2747   -3.1136 H       1  LIG1        0.0524
     36 H          -0.4493    0.3394   -3.3872 H       1  LIG1        0.0524
     37 H          -4.2100    3.5005    0.6888 H       1  LIG1        0.0618
     38 H           0.1707   -4.4574   -0.0676 H       1  LIG1        0.0618
     39 H          -2.7466    0.8369    3.7254 H       1  LIG1        0.0618
     40 H          -4.0660   -3.7727   -0.2377 H       1  LIG1        0.0618
     41 H          -4.1459    2.7806    3.0658 H       1  LIG1        0.0618
     42 H          -2.1501   -5.3338    0.0288 H       1  LIG1        0.0618
     43 H           5.9398   -0.3523    0.3761 H       1  LIG1        0.0653
     44 H           3.9956   -1.8380    3.2747 H       1  LIG1        0.0293
     45 H           5.4813   -0.8957    3.0543 H       1  LIG1        0.0293
     46 H           5.2330   -2.4093    2.1429 H       1  LIG1        0.0293
     47 H           4.2419    1.5712   -2.4216 H       1  LIG1        0.0293
     48 H           5.4229    0.2504   -2.3399 H       1  LIG1        0.0293
     49 H           5.6767    1.7437   -1.3978 H       1  LIG1        0.0293
@<TRIPOS>BOND
     1     1     7    1
     2     1    16    1
     3     2     8    1
     4     2    23    1
     5     3    15   ar
     6     4    15   ar
     7     5    23   ar
     8     5    24   ar
     9     6    23   ar
    10     6    25   ar
    11     7     8    1
    12     7     9    1
    13     7    10    1
    14     8    15    1
    15     9    11   ar
    16     9    13   ar
    17    10    12   ar
    18    10    14   ar
    19    11    17   ar
    20    12    18   ar
    21    13    19   ar
    22    14    20   ar
    23    17    21   ar
    24    18    22   ar
    25    19    21   ar
    26    20    22   ar
    27    24    26   ar
    28    24    27    1
    29    25    26   ar
    30    25    28    1
    31     8    29    1
    32    11    30    1
    33    12    31    1
    34    13    32    1
    35    14    33    1
    36    16    34    1
    37    16    35    1
    38    16    36    1
    39    17    37    1
    40    18    38    1
    41    19    39    1
    42    20    40    1
    43    21    41    1
    44    22    42    1
    45    26    43    1
    46    27    44    1
    47    27    45    1
    48    27    46    1
    49    28    47    1
    50    28    48    1
    51    28    49    1
@<TRIPOS>MOLECULE
6918493
 49 51 0 0 0
SMALL
GASTEIGER

@<TRIPOS>ATOM
      1 O          -2.0073    0.2727   -1.9806 O.3     1  LIG1       -0.3632
      2 O           0.8214    0.1613    0.5346 O.3     1  LIG1       -0.4495
      3 O           0.4626    2.7964    0.0275 O.co2   1  LIG1       -0.5459
      4 O           0.2584    2.3924   -2.2023 O.co2   1  LIG1       -0.5459
      5 N           2.8492    0.5466   -0.6034 N.ar    1  LIG1       -0.2002
      6 N           2.7619   -0.5838    1.4873 N.ar    1  LIG1       -0.2002
      7 C          -1.3142    0.0368   -0.7167 C.3     1  LIG1        0.1609
      8 C           0.1785    0.5178   -0.7215 C.3     1  LIG1        0.1791
      9 C          -2.1226    0.8127    0.3662 C.ar    1  LIG1       -0.0075
     10 C          -1.5062   -1.5068   -0.4971 C.ar    1  LIG1       -0.0075
     11 C          -2.9046    1.9315    0.0229 C.ar    1  LIG1       -0.0554
     12 C          -2.8159   -2.0363   -0.4518 C.ar    1  LIG1       -0.0554
     13 C          -2.0737    0.4417    1.7236 C.ar    1  LIG1       -0.0554
     14 C          -0.4428   -2.4169   -0.3773 C.ar    1  LIG1       -0.0554
     15 C           0.2950    2.0458   -0.9801 C.2     1  LIG1        0.0856
     16 C          -1.3748   -0.1988   -3.1601 C.3     1  LIG1        0.0382
     17 C          -3.6331    2.6294    0.9890 C.ar    1  LIG1       -0.0614
     18 C          -3.0485   -3.4011   -0.2637 C.ar    1  LIG1       -0.0614
     19 C          -2.8081    1.1363    2.6895 C.ar    1  LIG1       -0.0614
     20 C          -0.6748   -3.7837   -0.1855 C.ar    1  LIG1       -0.0614
     21 C          -3.5912    2.2276    2.3202 C.ar    1  LIG1       -0.0617
     22 C          -1.9751   -4.2748   -0.1243 C.ar    1  LIG1       -0.0617
     23 C           2.1931    0.0871    0.4705 C.ar    1  LIG1        0.3191
     24 C           4.1851    0.4160   -0.6095 C.ar    1  LIG1        0.0453
     25 C           4.0979   -0.7365    1.4354 C.ar    1  LIG1        0.0453
     26 C           4.8639   -0.2376    0.3986 C.ar    1  LIG1       -0.0193
     27 C           4.9215    1.0073   -1.7717 C.3     1  LIG1       -0.0221
     28 C           4.7437   -1.4939    2.5547 C.3     1  LIG1       -0.0221
     29 H           0.6959    0.0002   -1.5400 H       1  LIG1        0.0834
     30 H          -2.9187    2.2859   -1.0067 H       1  LIG1        0.0621
     31 H          -3.6665   -1.3649   -0.5655 H       1  LIG1        0.0621
     32 H          -1.4441   -0.3880    2.0393 H       1  LIG1        0.0621
     33 H           0.5899   -2.0895   -0.4304 H       1  LIG1        0.0621
     34 H          -2.0639   -0.0321   -3.9935 H       1  LIG1        0.0524
     35 H          -1.1692   -1.2713   -3.1117 H       1  LIG1        0.0524
     36 H          -0.4571    0.3449   -3.3853 H       1  LIG1        0.0524
     37 H          -4.2075    3.5021    0.6968 H       1  LIG1        0.0618
     38 H          -4.0677   -3.7730   -0.2253 H       1  LIG1        0.0618
     39 H          -2.7453    0.8351    3.7310 H       1  LIG1        0.0618
     40 H           0.1694   -4.4595   -0.0808 H       1  LIG1        0.0618
     41 H          -4.1429    2.7808    3.0731 H       1  LIG1        0.0618
     42 H          -2.1510   -5.3355    0.0275 H       1  LIG1        0.0618
     43 H           5.9387   -0.3529    0.3766 H       1  LIG1        0.0653
     44 H           4.2357    1.5385   -2.4398 H       1  LIG1        0.0293
     45 H           5.4170    0.2186   -2.3460 H       1  LIG1        0.0293
     46 H           5.6725    1.7221   -1.4203 H       1  LIG1        0.0293
     47 H           3.9998   -1.8063    3.2949 H       1  LIG1        0.0293
     48 H           5.4859   -0.8686    3.0590 H       1  LIG1        0.0293
     49 H           5.2334   -2.3925    2.1665 H       1  LIG1        0.0293
@<TRIPOS>BOND
     1     1     7    1
     2     1    16    1
     3     2     8    1
     4     2    23    1
     5     3    15   ar
     6     4    15   ar
     7     5    23   ar
     8     5    24   ar
     9     6    23   ar
    10     6    25   ar
    11     7     8    1
    12     7     9    1
    13     7    10    1
    14     8    15    1
    15     9    11   ar
    16     9    13   ar
    17    10    12   ar
    18    10    14   ar
    19    11    17   ar
    20    12    18   ar
    21    13    19   ar
    22    14    20   ar
    23    17    21   ar
    24    18    22   ar
    25    19    21   ar
    26    20    22   ar
    27    24    26   ar
    28    24    27    1
    29    25    26   ar
    30    25    28    1
    31     8    29    1
    32    11    30    1
    33    12    31    1
    34    13    32    1
    35    14    33    1
    36    16    34    1
    37    16    35    1
    38    16    36    1
    39    17    37    1
    40    18    38    1
    41    19    39    1
    42    20    40    1
    43    21    41    1
    44    22    42    1
    45    26    43    1
    46    27    44    1
    47    27    45    1
    48    27    46    1
    49    28    47    1
    50    28    48    1
    51    28    49    1
@<TRIPOS>MOLECULE
6918493
 49 51 0 0 0
SMALL
GASTEIGER

@<TRIPOS>ATOM
      1 O          -2.0038    0.2624   -1.9702 O.3     1  LIG1       -0.3632
      2 O           0.8173    0.2259    0.5573 O.3     1  LIG1       -0.4495
      3 O           0.4214    2.8410   -0.0306 O.co2   1  LIG1       -0.5459
      4 O           0.2604    2.3646   -2.2499 O.co2   1  LIG1       -0.5459
      5 N           2.8456    0.6137   -0.5767 N.ar    1  LIG1       -0.2002
      6 N           2.7492   -0.5863    1.4739 N.ar    1  LIG1       -0.2002
      7 C          -1.3106    0.0390   -0.7035 C.3     1  LIG1        0.1609
      8 C           0.1762    0.5383   -0.7128 C.3     1  LIG1        0.1791
      9 C          -2.1294    0.8157    0.3703 C.ar    1  LIG1       -0.0075
     10 C          -1.4836   -1.5060   -0.4739 C.ar    1  LIG1       -0.0075
     11 C          -2.8713    1.9599    0.0215 C.ar    1  LIG1       -0.0554
     12 C          -0.4103   -2.3984   -0.3119 C.ar    1  LIG1       -0.0554
     13 C          -2.1285    0.4261    1.7232 C.ar    1  LIG1       -0.0554
     14 C          -2.7854   -2.0560   -0.4609 C.ar    1  LIG1       -0.0554
     15 C           0.2813    2.0590   -1.0156 C.2     1  LIG1        0.0856
     16 C          -1.3791   -0.2338   -3.1441 C.3     1  LIG1        0.0382
     17 C          -3.6067    2.6657    0.9763 C.ar    1  LIG1       -0.0614
     18 C          -0.6266   -3.7662   -0.1139 C.ar    1  LIG1       -0.0614
     19 C          -2.8725    1.1259    2.6773 C.ar    1  LIG1       -0.0614
     20 C          -3.0014   -3.4227   -0.2689 C.ar    1  LIG1       -0.0614
     21 C          -3.6147    2.2435    2.3029 C.ar    1  LIG1       -0.0617
     22 C          -1.9199   -4.2785   -0.0898 C.ar    1  LIG1       -0.0617
     23 C           2.1877    0.1289    0.4841 C.ar    1  LIG1        0.3191
     24 C           4.1775    0.4498   -0.6030 C.ar    1  LIG1        0.0453
     25 C           4.0809   -0.7690    1.4029 C.ar    1  LIG1        0.0453
     26 C           4.8491   -0.2540    0.3756 C.ar    1  LIG1       -0.0193
     27 C           4.9151    1.0601   -1.7542 C.3     1  LIG1       -0.0221
     28 C           4.7186   -1.5814    2.4884 C.3     1  LIG1       -0.0221
     29 H           0.7039    0.0017   -1.5134 H       1  LIG1        0.0834
     30 H          -2.8457    2.3297   -1.0029 H       1  LIG1        0.0621
     31 H           0.6182   -2.0550   -0.3339 H       1  LIG1        0.0621
     32 H          -1.5303   -0.4226    2.0454 H       1  LIG1        0.0621
     33 H          -3.6425   -1.3989   -0.6053 H       1  LIG1        0.0621
     34 H          -2.0485   -0.0295   -3.9847 H       1  LIG1        0.0524
     35 H          -1.2306   -1.3152   -3.0971 H       1  LIG1        0.0524
     36 H          -0.4319    0.2612   -3.3558 H       1  LIG1        0.0524
     37 H          -4.1467    3.5598    0.6809 H       1  LIG1        0.0618
     38 H           0.2255   -4.4272    0.0233 H       1  LIG1        0.0618
     39 H          -2.8502    0.8088    3.7153 H       1  LIG1        0.0618
     40 H          -4.0159   -3.8114   -0.2593 H       1  LIG1        0.0618
     41 H          -4.1732    2.8027    3.0472 H       1  LIG1        0.0618
     42 H          -2.0827   -5.3403    0.0650 H       1  LIG1        0.0618
     43 H           5.9207   -0.3963    0.3375 H       1  LIG1        0.0653
     44 H           4.2326    1.6160   -2.4048 H       1  LIG1        0.0293
     45 H           5.3965    0.2793   -2.3508 H       1  LIG1        0.0293
     46 H           5.6772    1.7557   -1.3895 H       1  LIG1        0.0293
     47 H           3.9737   -1.9078    3.2202 H       1  LIG1        0.0293
     48 H           5.4758   -0.9896    3.0110 H       1  LIG1        0.0293
     49 H           5.1889   -2.4730    2.0626 H       1  LIG1        0.0293
@<TRIPOS>BOND
     1     1     7    1
     2     1    16    1
     3     2     8    1
     4     2    23    1
     5     3    15   ar
     6     4    15   ar
     7     5    23   ar
     8     5    24   ar
     9     6    23   ar
    10     6    25   ar
    11     7     8    1
    12     7     9    1
    13     7    10    1
    14     8    15    1
    15     9    11   ar
    16     9    13   ar
    17    10    12   ar
    18    10    14   ar
    19    11    17   ar
    20    12    18   ar
    21    13    19   ar
    22    14    20   ar
    23    17    21   ar
    24    18    22   ar
    25    19    21   ar
    26    20    22   ar
    27    24    26   ar
    28    24    27    1
    29    25    26   ar
    30    25    28    1
    31     8    29    1
    32    11    30    1
    33    12    31    1
    34    13    32    1
    35    14    33    1
    36    16    34    1
    37    16    35    1
    38    16    36    1
    39    17    37    1
    40    18    38    1
    41    19    39    1
    42    20    40    1
    43    21    41    1
    44    22    42    1
    45    26    43    1
    46    27    44    1
    47    27    45    1
    48    27    46    1
    49    28    47    1
    50    28    48    1
    51    28    49    1
@<TRIPOS>MOLECULE
6918493
 49 51 0 0 0
SMALL
GASTEIGER

@<TRIPOS>ATOM
      1 O          -2.0417    0.2447   -1.9578 O.3     1  LIG1       -0.3632
      2 O           0.8205    0.1856    0.5270 O.3     1  LIG1       -0.4495
      3 O           0.5677    2.7915   -0.0812 O.co2   1  LIG1       -0.5459
      4 O           0.2140    2.3278   -2.2780 O.co2   1  LIG1       -0.5459
      5 N           2.7935    0.0964   -0.7520 N.ar    1  LIG1       -0.2002
      6 N           2.8206   -0.0598    1.6209 N.ar    1  LIG1       -0.2002
      7 C          -1.3292    0.0228   -0.7017 C.3     1  LIG1        0.1609
      8 C           0.1608    0.5037   -0.7344 C.3     1  LIG1        0.1791
      9 C          -2.1237    0.8180    0.3746 C.ar    1  LIG1       -0.0075
     10 C          -1.5071   -1.5206   -0.4633 C.ar    1  LIG1       -0.0075
     11 C          -2.1424    0.4222    1.7253 C.ar    1  LIG1       -0.0554
     12 C          -2.8095   -2.0663   -0.4304 C.ar    1  LIG1       -0.0554
     13 C          -2.8299    1.9856    0.0279 C.ar    1  LIG1       -0.0554
     14 C          -0.4332   -2.4168   -0.3216 C.ar    1  LIG1       -0.0554
     15 C           0.3074    2.0170   -1.0505 C.2     1  LIG1        0.0856
     16 C          -1.4378   -0.2567   -3.1406 C.3     1  LIG1        0.0382
     17 C          -2.8763    1.1362    2.6777 C.ar    1  LIG1       -0.0614
     18 C          -3.0253   -3.4333   -0.2377 C.ar    1  LIG1       -0.0614
     19 C          -3.5543    2.7054    0.9811 C.ar    1  LIG1       -0.0614
     20 C          -0.6487   -3.7845   -0.1218 C.ar    1  LIG1       -0.0614
     21 C          -3.5859    2.2747    2.3042 C.ar    1  LIG1       -0.0617
     22 C          -1.9431   -4.2923   -0.0782 C.ar    1  LIG1       -0.0617
     23 C           2.1957    0.1447    0.4495 C.ar    1  LIG1        0.3191
     24 C           4.1284   -0.0444   -0.7696 C.ar    1  LIG1        0.0453
     25 C           4.1571   -0.2123    1.5726 C.ar    1  LIG1        0.0453
     26 C           4.8643   -0.2069    0.3853 C.ar    1  LIG1       -0.0193
     27 C           4.7940   -0.0409   -2.1104 C.3     1  LIG1       -0.0221
     28 C           4.8713   -0.4132    2.8738 C.3     1  LIG1       -0.0221
     29 H           0.6533   -0.0445   -1.5478 H       1  LIG1        0.0834
     30 H          -1.5706   -0.4454    2.0471 H       1  LIG1        0.0621
     31 H          -3.6667   -1.4066   -0.5619 H       1  LIG1        0.0621
     32 H          -2.7886    2.3588   -0.9954 H       1  LIG1        0.0621
     33 H           0.5964   -2.0770   -0.3654 H       1  LIG1        0.0621
     34 H          -2.1249   -0.0617   -3.9695 H       1  LIG1        0.0524
     35 H          -1.2817   -1.3373   -3.0896 H       1  LIG1        0.0524
     36 H          -0.4976    0.2420   -3.3753 H       1  LIG1        0.0524
     37 H          -2.8729    0.8102    3.7131 H       1  LIG1        0.0618
     38 H          -4.0400   -3.8198   -0.2149 H       1  LIG1        0.0618
     39 H          -4.0700    3.6137    0.6858 H       1  LIG1        0.0618
     40 H           0.2035   -4.4475   -0.0026 H       1  LIG1        0.0618
     41 H          -4.1378    2.8417    3.0467 H       1  LIG1        0.0618
     42 H          -2.1066   -5.3543    0.0751 H       1  LIG1        0.0618
     43 H           5.9388   -0.3280    0.3615 H       1  LIG1        0.0653
     44 H           4.0660    0.1440   -2.9070 H       1  LIG1        0.0293
     45 H           5.2661   -1.0100   -2.2995 H       1  LIG1        0.0293
     46 H           5.5539    0.7453   -2.1563 H       1  LIG1        0.0293
     47 H           4.1740   -0.3578    3.7158 H       1  LIG1        0.0293
     48 H           5.6343    0.3589    3.0116 H       1  LIG1        0.0293
     49 H           5.3495   -1.3978    2.8920 H       1  LIG1        0.0293
@<TRIPOS>BOND
     1     1     7    1
     2     1    16    1
     3     2     8    1
     4     2    23    1
     5     3    15   ar
     6     4    15   ar
     7     5    23   ar
     8     5    24   ar
     9     6    23   ar
    10     6    25   ar
    11     7     8    1
    12     7     9    1
    13     7    10    1
    14     8    15    1
    15     9    11   ar
    16     9    13   ar
    17    10    12   ar
    18    10    14   ar
    19    11    17   ar
    20    12    18   ar
    21    13    19   ar
    22    14    20   ar
    23    17    21   ar
    24    18    22   ar
    25    19    21   ar
    26    20    22   ar
    27    24    26   ar
    28    24    27    1
    29    25    26   ar
    30    25    28    1
    31     8    29    1
    32    11    30    1
    33    12    31    1
    34    13    32    1
    35    14    33    1
    36    16    34    1
    37    16    35    1
    38    16    36    1
    39    17    37    1
    40    18    38    1
    41    19    39    1
    42    20    40    1
    43    21    41    1
    44    22    42    1
    45    26    43    1
    46    27    44    1
    47    27    45    1
    48    27    46    1
    49    28    47    1
    50    28    48    1
    51    28    49    1
@<TRIPOS>MOLECULE
6918493
 49 51 0 0 0
SMALL
GASTEIGER

@<TRIPOS>ATOM
      1 O          -2.0418    0.2444   -1.9723 O.3     1  LIG1       -0.3632
      2 O           0.8269    0.1162    0.4989 O.3     1  LIG1       -0.4495
      3 O           0.5970    2.7387   -0.0625 O.co2   1  LIG1       -0.5459
      4 O           0.2415    2.3155   -2.2669 O.co2   1  LIG1       -0.5459
      5 N           2.8157   -0.0913    1.6150 N.ar    1  LIG1       -0.2002
      6 N           2.8145    0.0773   -0.7585 N.ar    1  LIG1       -0.2002
      7 C          -1.3278    0.0114   -0.7197 C.3     1  LIG1        0.1609
      8 C           0.1705    0.4664   -0.7544 C.3     1  LIG1        0.1791
      9 C          -2.1040    0.8132    0.3666 C.ar    1  LIG1       -0.0075
     10 C          -1.5327   -1.5283   -0.4827 C.ar    1  LIG1       -0.0075
     11 C          -2.0620    0.4434    1.7246 C.ar    1  LIG1       -0.0554
     12 C          -2.8458   -2.0451   -0.4093 C.ar    1  LIG1       -0.0554
     13 C          -2.8527    1.9548    0.0239 C.ar    1  LIG1       -0.0554
     14 C          -0.4751   -2.4487   -0.3813 C.ar    1  LIG1       -0.0554
     15 C           0.3302    1.9837   -1.0438 C.2     1  LIG1        0.0856
     16 C          -1.4401   -0.2484   -3.1594 C.3     1  LIG1        0.0382
     17 C          -2.7750    1.1586    2.6906 C.ar    1  LIG1       -0.0614
     18 C          -3.0864   -3.4069   -0.2135 C.ar    1  LIG1       -0.0614
     19 C          -3.5598    2.6739    0.9906 C.ar    1  LIG1       -0.0614
     20 C          -0.7153   -3.8124   -0.1804 C.ar    1  LIG1       -0.0614
     21 C          -3.5285    2.2703    2.3226 C.ar    1  LIG1       -0.0617
     22 C          -2.0188   -4.2906   -0.0933 C.ar    1  LIG1       -0.0617
     23 C           2.2018    0.1025    0.4363 C.ar    1  LIG1        0.3191
     24 C           4.1575   -0.1998    1.5848 C.ar    1  LIG1        0.0453
     25 C           4.1537   -0.0180   -0.7571 C.ar    1  LIG1        0.0453
     26 C           4.8796   -0.1635    0.4071 C.ar    1  LIG1       -0.0193
     27 C           4.8591   -0.3832    2.8952 C.3     1  LIG1       -0.0221
     28 C           4.8406    0.0214   -2.0871 C.3     1  LIG1       -0.0221
     29 H           0.6553   -0.0754   -1.5762 H       1  LIG1        0.0834
     30 H          -1.4560   -0.4032    2.0395 H       1  LIG1        0.0621
     31 H          -3.6921   -1.3659   -0.5099 H       1  LIG1        0.0621
     32 H          -2.8603    2.3077   -1.0062 H       1  LIG1        0.0621
     33 H           0.5596   -2.1301   -0.4585 H       1  LIG1        0.0621
     34 H          -2.1428   -0.0783   -3.9805 H       1  LIG1        0.0524
     35 H          -1.2507   -1.3236   -3.1047 H       1  LIG1        0.0524
     36 H          -0.5183    0.2777   -3.4082 H       1  LIG1        0.0524
     37 H          -2.7208    0.8560    3.7315 H       1  LIG1        0.0618
     38 H          -4.1079   -3.7700   -0.1555 H       1  LIG1        0.0618
     39 H          -4.1117    3.5619    0.6982 H       1  LIG1        0.0618
     40 H           0.1247   -4.4955   -0.0932 H       1  LIG1        0.0618
     41 H          -4.0657    2.8389    3.0750 H       1  LIG1        0.0618
     42 H          -2.2012   -5.3496    0.0630 H       1  LIG1        0.0618
     43 H           5.9579   -0.2472    0.3974 H       1  LIG1        0.0653
     44 H           4.1494   -0.3424    3.7278 H       1  LIG1        0.0293
     45 H           5.6018    0.4068    3.0425 H       1  LIG1        0.0293
     46 H           5.3592   -1.3562    2.9210 H       1  LIG1        0.0293
     47 H           4.1218    0.2036   -2.8925 H       1  LIG1        0.0293
     48 H           5.3373   -0.9340   -2.2828 H       1  LIG1        0.0293
     49 H           5.5838    0.8244   -2.1079 H       1  LIG1        0.0293
@<TRIPOS>BOND
     1     1     7    1
     2     1    16    1
     3     2     8    1
     4     2    23    1
     5     3    15   ar
     6     4    15   ar
     7     5    23   ar
     8     5    24   ar
     9     6    23   ar
    10     6    25   ar
    11     7     8    1
    12     7     9    1
    13     7    10    1
    14     8    15    1
    15     9    11   ar
    16     9    13   ar
    17    10    12   ar
    18    10    14   ar
    19    11    17   ar
    20    12    18   ar
    21    13    19   ar
    22    14    20   ar
    23    17    21   ar
    24    18    22   ar
    25    19    21   ar
    26    20    22   ar
    27    24    26   ar
    28    24    27    1
    29    25    26   ar
    30    25    28    1
    31     8    29    1
    32    11    30    1
    33    12    31    1
    34    13    32    1
    35    14    33    1
    36    16    34    1
    37    16    35    1
    38    16    36    1
    39    17    37    1
    40    18    38    1
    41    19    39    1
    42    20    40    1
    43    21    41    1
    44    22    42    1
    45    26    43    1
    46    27    44    1
    47    27    45    1
    48    27    46    1
    49    28    47    1
    50    28    48    1
    51    28    49    1
@<TRIPOS>MOLECULE
6918493
 49 51 0 0 0
SMALL
GASTEIGER

@<TRIPOS>ATOM
      1 O          -2.0203    0.2161   -1.9670 O.3     1  LIG1       -0.3632
      2 O           0.8477    0.2200    0.5108 O.3     1  LIG1       -0.4495
      3 O           0.4662    2.8214   -0.0776 O.co2   1  LIG1       -0.5459
      4 O           0.2391    2.3392   -2.2893 O.co2   1  LIG1       -0.5459
      5 N           2.8127    0.1252   -0.7790 N.ar    1  LIG1       -0.2002
      6 N           2.8483   -0.0273    1.5939 N.ar    1  LIG1       -0.2002
      7 C          -1.3235    0.0343   -0.6943 C.3     1  LIG1        0.1609
      8 C           0.1660    0.5235   -0.7404 C.3     1  LIG1        0.1791
      9 C          -2.1420    0.8280    0.3691 C.ar    1  LIG1       -0.0075
     10 C          -1.4954   -1.5016   -0.4156 C.ar    1  LIG1       -0.0075
     11 C          -1.8970    0.6616    1.7464 C.ar    1  LIG1       -0.0554
     12 C          -0.4188   -2.3951   -0.2797 C.ar    1  LIG1       -0.0554
     13 C          -3.1574    1.7279   -0.0051 C.ar    1  LIG1       -0.0554
     14 C          -2.7966   -2.0485   -0.3551 C.ar    1  LIG1       -0.0554
     15 C           0.2764    2.0378   -1.0564 C.2     1  LIG1        0.0856
     16 C          -1.3945   -0.3001   -3.1314 C.3     1  LIG1        0.0382
     17 C          -2.6395    1.3587    2.7043 C.ar    1  LIG1       -0.0614
     18 C          -0.6300   -3.7613   -0.0655 C.ar    1  LIG1       -0.0614
     19 C          -3.9076    2.4166    0.9522 C.ar    1  LIG1       -0.0614
     20 C          -3.0089   -3.4140   -0.1493 C.ar    1  LIG1       -0.0614
     21 C          -3.6488    2.2312    2.3074 C.ar    1  LIG1       -0.0617
     22 C          -1.9232   -4.2705   -0.0002 C.ar    1  LIG1       -0.0617
     23 C           2.2206    0.1782    0.4237 C.ar    1  LIG1        0.3191
     24 C           4.1468   -0.0302   -0.8004 C.ar    1  LIG1        0.0453
     25 C           4.1826   -0.1947    1.5421 C.ar    1  LIG1        0.0453
     26 C           4.8855   -0.1989    0.3525 C.ar    1  LIG1       -0.0193
     27 C           4.8097   -0.0376   -2.1427 C.3     1  LIG1       -0.0221
     28 C           4.8978   -0.4028    2.8419 C.3     1  LIG1       -0.0221
     29 H           0.6575   -0.0205   -1.5563 H       1  LIG1        0.0834
     30 H          -1.1048   -0.0046    2.0836 H       1  LIG1        0.0621
     31 H           0.6098   -2.0547   -0.3460 H       1  LIG1        0.0621
     32 H          -3.3593    1.9135   -1.0572 H       1  LIG1        0.0621
     33 H          -3.6573   -1.3937   -0.4836 H       1  LIG1        0.0621
     34 H          -2.0893   -0.1664   -3.9656 H       1  LIG1        0.0524
     35 H          -1.1871   -1.3696   -3.0429 H       1  LIG1        0.0524
     36 H          -0.4799    0.2366   -3.3855 H       1  LIG1        0.0524
     37 H          -2.4102    1.2296    3.7572 H       1  LIG1        0.0618
     38 H           0.2242   -4.4230    0.0453 H       1  LIG1        0.0618
     39 H          -4.6761    3.1118    0.6317 H       1  LIG1        0.0618
     40 H          -4.0219   -3.8009   -0.1103 H       1  LIG1        0.0618
     41 H          -4.2151    2.7831    3.0503 H       1  LIG1        0.0618
     42 H          -2.0830   -5.3324    0.1610 H       1  LIG1        0.0618
     43 H           5.9579   -0.3333    0.3248 H       1  LIG1        0.0653
     44 H           4.0809    0.1460   -2.9390 H       1  LIG1        0.0293
     45 H           5.2768   -1.0096   -2.3268 H       1  LIG1        0.0293
     46 H           5.5729    0.7447   -2.1941 H       1  LIG1        0.0293
     47 H           4.2019   -0.3453    3.6847 H       1  LIG1        0.0293
     48 H           5.6651    0.3644    2.9803 H       1  LIG1        0.0293
     49 H           5.3699   -1.3901    2.8574 H       1  LIG1        0.0293
@<TRIPOS>BOND
     1     1     7    1
     2     1    16    1
     3     2     8    1
     4     2    23    1
     5     3    15   ar
     6     4    15   ar
     7     5    23   ar
     8     5    24   ar
     9     6    23   ar
    10     6    25   ar
    11     7     8    1
    12     7     9    1
    13     7    10    1
    14     8    15    1
    15     9    11   ar
    16     9    13   ar
    17    10    12   ar
    18    10    14   ar
    19    11    17   ar
    20    12    18   ar
    21    13    19   ar
    22    14    20   ar
    23    17    21   ar
    24    18    22   ar
    25    19    21   ar
    26    20    22   ar
    27    24    26   ar
    28    24    27    1
    29    25    26   ar
    30    25    28    1
    31     8    29    1
    32    11    30    1
    33    12    31    1
    34    13    32    1
    35    14    33    1
    36    16    34    1
    37    16    35    1
    38    16    36    1
    39    17    37    1
    40    18    38    1
    41    19    39    1
    42    20    40    1
    43    21    41    1
    44    22    42    1
    45    26    43    1
    46    27    44    1
    47    27    45    1
    48    27    46    1
    49    28    47    1
    50    28    48    1
    51    28    49    1
@<TRIPOS>MOLECULE
6918493
 49 51 0 0 0
SMALL
GASTEIGER

@<TRIPOS>ATOM
      1 O          -2.0096    0.2221   -1.9640 O.3     1  LIG1       -0.3632
      2 O           0.8478    0.2500    0.5256 O.3     1  LIG1       -0.4495
      3 O           0.4444    2.8405   -0.0771 O.co2   1  LIG1       -0.5459
      4 O           0.2383    2.3449   -2.2888 O.co2   1  LIG1       -0.5459
      5 N           2.8500   -0.0337    1.5984 N.ar    1  LIG1       -0.2002
      6 N           2.8079    0.1521   -0.7718 N.ar    1  LIG1       -0.2002
      7 C          -1.3216    0.0409   -0.6856 C.3     1  LIG1        0.1609
      8 C           0.1649    0.5396   -0.7277 C.3     1  LIG1        0.1791
      9 C          -2.1493    0.8287    0.3747 C.ar    1  LIG1       -0.0075
     10 C          -1.4851   -1.4958   -0.4091 C.ar    1  LIG1       -0.0075
     11 C          -1.8839    0.6940    1.7507 C.ar    1  LIG1       -0.0554
     12 C          -0.4038   -2.3801   -0.2541 C.ar    1  LIG1       -0.0554
     13 C          -3.1923    1.6965   -0.0022 C.ar    1  LIG1       -0.0554
     14 C          -2.7821   -2.0546   -0.3772 C.ar    1  LIG1       -0.0554
     15 C           0.2661    2.0536   -1.0516 C.2     1  LIG1        0.0856
     16 C          -1.3831   -0.3070   -3.1225 C.3     1  LIG1        0.0382
     17 C          -2.6248    1.3978    2.7049 C.ar    1  LIG1       -0.0614
     18 C          -0.6068   -3.7501   -0.0539 C.ar    1  LIG1       -0.0614
     19 C          -3.9428    2.3892    0.9523 C.ar    1  LIG1       -0.0614
     20 C          -2.9856   -3.4236   -0.1874 C.ar    1  LIG1       -0.0614
     21 C          -3.6575    2.2414    2.3061 C.ar    1  LIG1       -0.0617
     22 C          -1.8959   -4.2719   -0.0219 C.ar    1  LIG1       -0.0617
     23 C           2.2194    0.1957    0.4338 C.ar    1  LIG1        0.3191
     24 C           4.1809   -0.2218    1.5375 C.ar    1  LIG1        0.0453
     25 C           4.1369   -0.0245   -0.8029 C.ar    1  LIG1        0.0453
     26 C           4.8786   -0.2202    0.3442 C.ar    1  LIG1       -0.0193
     27 C           4.8990   -0.4598    2.8299 C.3     1  LIG1       -0.0221
     28 C           4.7904   -0.0257   -2.1491 C.3     1  LIG1       -0.0221
     29 H           0.6618   -0.0059   -1.5385 H       1  LIG1        0.0834
     30 H          -1.0743    0.0520    2.0908 H       1  LIG1        0.0621
     31 H           0.6228   -2.0311   -0.2959 H       1  LIG1        0.0621
     32 H          -3.4158    1.8555   -1.0553 H       1  LIG1        0.0621
     33 H          -3.6458   -1.4066   -0.5208 H       1  LIG1        0.0621
     34 H          -2.0586   -0.1410   -3.9671 H       1  LIG1        0.0524
     35 H          -1.2193   -1.3846   -3.0391 H       1  LIG1        0.0524
     36 H          -0.4446    0.1949   -3.3583 H       1  LIG1        0.0524
     37 H          -2.3745    1.2987    3.7569 H       1  LIG1        0.0618
     38 H           0.2516   -4.4045    0.0703 H       1  LIG1        0.0618
     39 H          -4.7318    3.0611    0.6288 H       1  LIG1        0.0618
     40 H          -3.9960   -3.8205   -0.1752 H       1  LIG1        0.0618
     41 H          -4.2215    2.7999    3.0459 H       1  LIG1        0.0618
     42 H          -2.0491   -5.3360    0.1257 H       1  LIG1        0.0618
     43 H           5.9485   -0.3716    0.3092 H       1  LIG1        0.0653
     44 H           4.2053   -0.4203    3.6761 H       1  LIG1        0.0293
     45 H           5.6682    0.3032    2.9834 H       1  LIG1        0.0293
     46 H           5.3697   -1.4482    2.8231 H       1  LIG1        0.0293
     47 H           4.0561    0.1643   -2.9393 H       1  LIG1        0.0293
     48 H           5.2533   -0.9979   -2.3430 H       1  LIG1        0.0293
     49 H           5.5551    0.7551   -2.2014 H       1  LIG1        0.0293
@<TRIPOS>BOND
     1     1     7    1
     2     1    16    1
     3     2     8    1
     4     2    23    1
     5     3    15   ar
     6     4    15   ar
     7     5    23   ar
     8     5    24   ar
     9     6    23   ar
    10     6    25   ar
    11     7     8    1
    12     7     9    1
    13     7    10    1
    14     8    15    1
    15     9    11   ar
    16     9    13   ar
    17    10    12   ar
    18    10    14   ar
    19    11    17   ar
    20    12    18   ar
    21    13    19   ar
    22    14    20   ar
    23    17    21   ar
    24    18    22   ar
    25    19    21   ar
    26    20    22   ar
    27    24    26   ar
    28    24    27    1
    29    25    26   ar
    30    25    28    1
    31     8    29    1
    32    11    30    1
    33    12    31    1
    34    13    32    1
    35    14    33    1
    36    16    34    1
    37    16    35    1
    38    16    36    1
    39    17    37    1
    40    18    38    1
    41    19    39    1
    42    20    40    1
    43    21    41    1
    44    22    42    1
    45    26    43    1
    46    27    44    1
    47    27    45    1
    48    27    46    1
    49    28    47    1
    50    28    48    1
    51    28    49    1
@<TRIPOS>MOLECULE
6918493
 49 51 0 0 0
SMALL
GASTEIGER

@<TRIPOS>ATOM
      1 O          -2.0388    0.2423   -1.9622 O.3     1  LIG1       -0.3632
      2 O           0.8235    0.1720    0.5215 O.3     1  LIG1       -0.4495
      3 O           0.5711    2.7793   -0.0812 O.co2   1  LIG1       -0.5459
      4 O           0.2241    2.3204   -2.2792 O.co2   1  LIG1       -0.5459
      5 N           2.8003    0.0918   -0.7525 N.ar    1  LIG1       -0.2002
      6 N           2.8217   -0.0626    1.6209 N.ar    1  LIG1       -0.2002
      7 C          -1.3268    0.0180   -0.7061 C.3     1  LIG1        0.1609
      8 C           0.1650    0.4938   -0.7391 C.3     1  LIG1        0.1791
      9 C          -2.1189    0.8148    0.3718 C.ar    1  LIG1       -0.0075
     10 C          -1.5113   -1.5246   -0.4679 C.ar    1  LIG1       -0.0075
     11 C          -2.1238    0.4252    1.7243 C.ar    1  LIG1       -0.0554
     12 C          -0.4407   -2.4250   -0.3268 C.ar    1  LIG1       -0.0554
     13 C          -2.8353    1.9761    0.0247 C.ar    1  LIG1       -0.0554
     14 C          -2.8157   -2.0642   -0.4312 C.ar    1  LIG1       -0.0554
     15 C           0.3133    2.0077   -1.0512 C.2     1  LIG1        0.0856
     16 C          -1.4355   -0.2589   -3.1452 C.3     1  LIG1        0.0382
     17 C          -2.8547    1.1383    2.6789 C.ar    1  LIG1       -0.0614
     18 C          -0.6625   -3.7915   -0.1254 C.ar    1  LIG1       -0.0614
     19 C          -3.5574    2.6944    0.9804 C.ar    1  LIG1       -0.0614
     20 C          -3.0380   -3.4296   -0.2368 C.ar    1  LIG1       -0.0614
     21 C          -3.5757    2.2700    2.3054 C.ar    1  LIG1       -0.0617
     22 C          -1.9592   -4.2934   -0.0785 C.ar    1  LIG1       -0.0617
     23 C           2.1988    0.1372    0.4473 C.ar    1  LIG1        0.3191
     24 C           4.1360   -0.0395   -0.7657 C.ar    1  LIG1        0.0453
     25 C           4.1591   -0.2062    1.5765 C.ar    1  LIG1        0.0453
     26 C           4.8701   -0.1967    0.3914 C.ar    1  LIG1       -0.0193
     27 C           4.8068   -0.0309   -2.1045 C.3     1  LIG1       -0.0221
     28 C           4.8707   -0.4014    2.8800 C.3     1  LIG1       -0.0221
     29 H           0.6561   -0.0545   -1.5526 H       1  LIG1        0.0834
     30 H          -1.5439   -0.4372    2.0455 H       1  LIG1        0.0621
     31 H           0.5904   -2.0892   -0.3726 H       1  LIG1        0.0621
     32 H          -2.8045    2.3443   -1.0001 H       1  LIG1        0.0621
     33 H          -3.6703   -1.4007   -0.5617 H       1  LIG1        0.0621
     34 H          -2.1254   -0.0694   -3.9728 H       1  LIG1        0.0524
     35 H          -1.2729   -1.3386   -3.0923 H       1  LIG1        0.0524
     36 H          -0.4985    0.2448   -3.3830 H       1  LIG1        0.0524
     37 H          -2.8408    0.8179    3.7160 H       1  LIG1        0.0618
     38 H           0.1872   -4.4584   -0.0071 H       1  LIG1        0.0618
     39 H          -4.0822    3.5978    0.6850 H       1  LIG1        0.0618
     40 H          -4.0540   -3.8114   -0.2110 H       1  LIG1        0.0618
     41 H          -4.1262    2.8367    3.0500 H       1  LIG1        0.0618
     42 H          -2.1266   -5.3545    0.0766 H       1  LIG1        0.0618
     43 H           5.9451   -0.3105    0.3705 H       1  LIG1        0.0653
     44 H           4.0814    0.1542   -2.9033 H       1  LIG1        0.0293
     45 H           5.2819   -0.9982   -2.2939 H       1  LIG1        0.0293
     46 H           5.5647    0.7571   -2.1456 H       1  LIG1        0.0293
     47 H           4.1710   -0.3456    3.7201 H       1  LIG1        0.0293
     48 H           5.6309    0.3737    3.0179 H       1  LIG1        0.0293
     49 H           5.3520   -1.3843    2.9026 H       1  LIG1        0.0293
@<TRIPOS>BOND
     1     1     7    1
     2     1    16    1
     3     2     8    1
     4     2    23    1
     5     3    15   ar
     6     4    15   ar
     7     5    23   ar
     8     5    24   ar
     9     6    23   ar
    10     6    25   ar
    11     7     8    1
    12     7     9    1
    13     7    10    1
    14     8    15    1
    15     9    11   ar
    16     9    13   ar
    17    10    12   ar
    18    10    14   ar
    19    11    17   ar
    20    12    18   ar
    21    13    19   ar
    22    14    20   ar
    23    17    21   ar
    24    18    22   ar
    25    19    21   ar
    26    20    22   ar
    27    24    26   ar
    28    24    27    1
    29    25    26   ar
    30    25    28    1
    31     8    29    1
    32    11    30    1
    33    12    31    1
    34    13    32    1
    35    14    33    1
    36    16    34    1
    37    16    35    1
    38    16    36    1
    39    17    37    1
    40    18    38    1
    41    19    39    1
    42    20    40    1
    43    21    41    1
    44    22    42    1
    45    26    43    1
    46    27    44    1
    47    27    45    1
    48    27    46    1
    49    28    47    1
    50    28    48    1
    51    28    49    1
@<TRIPOS>MOLECULE
6918493
 49 51 0 0 0
SMALL
GASTEIGER

@<TRIPOS>ATOM
      1 O          -2.0414    0.2406   -1.9731 O.3     1  LIG1       -0.3632
      2 O           0.8267    0.1047    0.4988 O.3     1  LIG1       -0.4495
      3 O           0.5971    2.7286   -0.0596 O.co2   1  LIG1       -0.5459
      4 O           0.2484    2.3077   -2.2652 O.co2   1  LIG1       -0.5459
      5 N           2.8159   -0.0935    1.6174 N.ar    1  LIG1       -0.2002
      6 N           2.8164    0.0730   -0.7566 N.ar    1  LIG1       -0.2002
      7 C          -1.3284    0.0059   -0.7201 C.3     1  LIG1        0.1609
      8 C           0.1713    0.4574   -0.7547 C.3     1  LIG1        0.1791
      9 C          -2.1027    0.8090    0.3664 C.ar    1  LIG1       -0.0075
     10 C          -1.5373   -1.5329   -0.4827 C.ar    1  LIG1       -0.0075
     11 C          -2.0532    0.4434    1.7254 C.ar    1  LIG1       -0.0554
     12 C          -0.4818   -2.4562   -0.3819 C.ar    1  LIG1       -0.0554
     13 C          -2.8569    1.9469    0.0239 C.ar    1  LIG1       -0.0554
     14 C          -2.8516   -2.0460   -0.4082 C.ar    1  LIG1       -0.0554
     15 C           0.3329    1.9751   -1.0421 C.2     1  LIG1        0.0856
     16 C          -1.4395   -0.2523   -3.1601 C.3     1  LIG1        0.0382
     17 C          -2.7640    1.1592    2.6928 C.ar    1  LIG1       -0.0614
     18 C          -0.7258   -3.8191   -0.1801 C.ar    1  LIG1       -0.0614
     19 C          -3.5624    2.6661    0.9919 C.ar    1  LIG1       -0.0614
     20 C          -3.0960   -3.4072   -0.2109 C.ar    1  LIG1       -0.0614
     21 C          -3.5231    2.2670    2.3249 C.ar    1  LIG1       -0.0617
     22 C          -2.0306   -4.2938   -0.0916 C.ar    1  LIG1       -0.0617
     23 C           2.2021    0.0962    0.4374 C.ar    1  LIG1        0.3191
     24 C           4.1573   -0.1948    1.5892 C.ar    1  LIG1        0.0453
     25 C           4.1564   -0.0147   -0.7528 C.ar    1  LIG1        0.0453
     26 C           4.8813   -0.1554    0.4129 C.ar    1  LIG1       -0.0193
     27 C           4.8576   -0.3728    2.9010 C.3     1  LIG1       -0.0221
     28 C           4.8454    0.0279   -2.0815 C.3     1  LIG1       -0.0221
     29 H           0.6553   -0.0848   -1.5769 H       1  LIG1        0.0834
     30 H          -1.4430   -0.4007    2.0399 H       1  LIG1        0.0621
     31 H           0.5540   -2.1399   -0.4598 H       1  LIG1        0.0621
     32 H          -2.8708    2.2969   -1.0072 H       1  LIG1        0.0621
     33 H          -3.6960   -1.3649   -0.5089 H       1  LIG1        0.0621
     34 H          -2.1433   -0.0849   -3.9809 H       1  LIG1        0.0524
     35 H          -1.2473   -1.3269   -3.1042 H       1  LIG1        0.0524
     36 H          -0.5193    0.2760   -3.4101 H       1  LIG1        0.0524
     37 H          -2.7034    0.8599    3.7342 H       1  LIG1        0.0618
     38 H           0.1129   -4.5049   -0.0935 H       1  LIG1        0.0618
     39 H          -4.1191    3.5512    0.6995 H       1  LIG1        0.0618
     40 H          -4.1182   -3.7675   -0.1520 H       1  LIG1        0.0618
     41 H          -4.0586    2.8357    3.0781 H       1  LIG1        0.0618
     42 H          -2.2146   -5.3522    0.0645 H       1  LIG1        0.0618
     43 H           5.9599   -0.2329    0.4049 H       1  LIG1        0.0653
     44 H           4.1466   -0.3333    3.7325 H       1  LIG1        0.0293
     45 H           5.5971    0.4204    3.0481 H       1  LIG1        0.0293
     46 H           5.3618   -1.3438    2.9295 H       1  LIG1        0.0293
     47 H           4.1273    0.2077   -2.8883 H       1  LIG1        0.0293
     48 H           5.3462   -0.9254   -2.2768 H       1  LIG1        0.0293
     49 H           5.5855    0.8338   -2.1008 H       1  LIG1        0.0293
@<TRIPOS>BOND
     1     1     7    1
     2     1    16    1
     3     2     8    1
     4     2    23    1
     5     3    15   ar
     6     4    15   ar
     7     5    23   ar
     8     5    24   ar
     9     6    23   ar
    10     6    25   ar
    11     7     8    1
    12     7     9    1
    13     7    10    1
    14     8    15    1
    15     9    11   ar
    16     9    13   ar
    17    10    12   ar
    18    10    14   ar
    19    11    17   ar
    20    12    18   ar
    21    13    19   ar
    22    14    20   ar
    23    17    21   ar
    24    18    22   ar
    25    19    21   ar
    26    20    22   ar
    27    24    26   ar
    28    24    27    1
    29    25    26   ar
    30    25    28    1
    31     8    29    1
    32    11    30    1
    33    12    31    1
    34    13    32    1
    35    14    33    1
    36    16    34    1
    37    16    35    1
    38    16    36    1
    39    17    37    1
    40    18    38    1
    41    19    39    1
    42    20    40    1
    43    21    41    1
    44    22    42    1
    45    26    43    1
    46    27    44    1
    47    27    45    1
    48    27    46    1
    49    28    47    1
    50    28    48    1
    51    28    49    1
@<TRIPOS>MOLECULE
6918493
 49 51 0 0 0
SMALL
GASTEIGER

@<TRIPOS>ATOM
      1 O          -2.0331    0.2010   -1.9710 O.3     1  LIG1       -0.3632
      2 O           0.8455    0.1698    0.4925 O.3     1  LIG1       -0.4495
      3 O           0.5039    2.7806   -0.0728 O.co2   1  LIG1       -0.5459
      4 O           0.2314    2.3265   -2.2840 O.co2   1  LIG1       -0.5459
      5 N           2.8175    0.1044   -0.7884 N.ar    1  LIG1       -0.2002
      6 N           2.8444   -0.0407    1.5865 N.ar    1  LIG1       -0.2002
      7 C          -1.3269    0.0169   -0.7054 C.3     1  LIG1        0.1609
      8 C           0.1661    0.4938   -0.7555 C.3     1  LIG1        0.1791
      9 C          -2.1289    0.8183    0.3646 C.ar    1  LIG1       -0.0075
     10 C          -1.5096   -1.5180   -0.4250 C.ar    1  LIG1       -0.0075
     11 C          -1.9108    0.6126    1.7407 C.ar    1  LIG1       -0.0554
     12 C          -2.8153   -2.0483   -0.3217 C.ar    1  LIG1       -0.0554
     13 C          -3.1013    1.7663   -0.0056 C.ar    1  LIG1       -0.0554
     14 C          -0.4402   -2.4239   -0.3240 C.ar    1  LIG1       -0.0554
     15 C           0.2883    2.0113   -1.0546 C.2     1  LIG1        0.0856
     16 C          -1.4089   -0.3022   -3.1420 C.3     1  LIG1        0.0382
     17 C          -2.6462    1.3108    2.7024 C.ar    1  LIG1       -0.0614
     18 C          -3.0370   -3.4093   -0.0979 C.ar    1  LIG1       -0.0614
     19 C          -3.8423    2.4586    0.9564 C.ar    1  LIG1       -0.0614
     20 C          -0.6616   -3.7864   -0.0942 C.ar    1  LIG1       -0.0614
     21 C          -3.6159    2.2290    2.3107 C.ar    1  LIG1       -0.0617
     22 C          -1.9581   -4.2786    0.0201 C.ar    1  LIG1       -0.0617
     23 C           2.2195    0.1488    0.4122 C.ar    1  LIG1        0.3191
     24 C           4.1559   -0.0173   -0.8006 C.ar    1  LIG1        0.0453
     25 C           4.1823   -0.1748    1.5425 C.ar    1  LIG1        0.0453
     26 C           4.8918   -0.1649    0.3573 C.ar    1  LIG1       -0.0193
     27 C           4.8284   -0.0095   -2.1377 C.3     1  LIG1       -0.0221
     28 C           4.8938   -0.3600    2.8468 C.3     1  LIG1       -0.0221
     29 H           0.6530   -0.0454   -1.5769 H       1  LIG1        0.0834
     30 H          -1.1479   -0.0884    2.0721 H       1  LIG1        0.0621
     31 H          -3.6716   -1.3828   -0.4238 H       1  LIG1        0.0621
     32 H          -3.2750    1.9858   -1.0569 H       1  LIG1        0.0621
     33 H           0.5894   -2.0955   -0.4252 H       1  LIG1        0.0621
     34 H          -2.1207   -0.1969   -3.9660 H       1  LIG1        0.0524
     35 H          -1.1633   -1.3631   -3.0507 H       1  LIG1        0.0524
     36 H          -0.5177    0.2645   -3.4115 H       1  LIG1        0.0524
     37 H          -2.4413    1.1468    3.7559 H       1  LIG1        0.0618
     38 H          -4.0536   -3.7825   -0.0199 H       1  LIG1        0.0618
     39 H          -4.5781    3.1913    0.6403 H       1  LIG1        0.0618
     40 H           0.1880   -4.4589   -0.0087 H       1  LIG1        0.0618
     41 H          -4.1771    2.7812    3.0576 H       1  LIG1        0.0618
     42 H          -2.1256   -5.3360    0.1966 H       1  LIG1        0.0618
     43 H           5.9681   -0.2713    0.3364 H       1  LIG1        0.0653
     44 H           4.1038    0.1710   -2.9391 H       1  LIG1        0.0293
     45 H           5.3083   -0.9758   -2.3240 H       1  LIG1        0.0293
     46 H           5.5836    0.7813   -2.1794 H       1  LIG1        0.0293
     47 H           4.1938   -0.3021    3.6873 H       1  LIG1        0.0293
     48 H           5.6519    0.4187    2.9817 H       1  LIG1        0.0293
     49 H           5.3792   -1.3417    2.8757 H       1  LIG1        0.0293
@<TRIPOS>BOND
     1     1     7    1
     2     1    16    1
     3     2     8    1
     4     2    23    1
     5     3    15   ar
     6     4    15   ar
     7     5    23   ar
     8     5    24   ar
     9     6    23   ar
    10     6    25   ar
    11     7     8    1
    12     7     9    1
    13     7    10    1
    14     8    15    1
    15     9    11   ar
    16     9    13   ar
    17    10    12   ar
    18    10    14   ar
    19    11    17   ar
    20    12    18   ar
    21    13    19   ar
    22    14    20   ar
    23    17    21   ar
    24    18    22   ar
    25    19    21   ar
    26    20    22   ar
    27    24    26   ar
    28    24    27    1
    29    25    26   ar
    30    25    28    1
    31     8    29    1
    32    11    30    1
    33    12    31    1
    34    13    32    1
    35    14    33    1
    36    16    34    1
    37    16    35    1
    38    16    36    1
    39    17    37    1
    40    18    38    1
    41    19    39    1
    42    20    40    1
    43    21    41    1
    44    22    42    1
    45    26    43    1
    46    27    44    1
    47    27    45    1
    48    27    46    1
    49    28    47    1
    50    28    48    1
    51    28    49    1
@<TRIPOS>MOLECULE
6918493
 49 51 0 0 0
SMALL
GASTEIGER

@<TRIPOS>ATOM
      1 O          -2.0280    0.2086   -1.9677 O.3     1  LIG1       -0.3632
      2 O           0.8464    0.1944    0.5008 O.3     1  LIG1       -0.4495
      3 O           0.4855    2.8011   -0.0683 O.co2   1  LIG1       -0.5459
      4 O           0.2287    2.3407   -2.2801 O.co2   1  LIG1       -0.5459
      5 N           2.8446   -0.0492    1.5887 N.ar    1  LIG1       -0.2002
      6 N           2.8160    0.1286   -0.7837 N.ar    1  LIG1       -0.2002
      7 C          -1.3252    0.0263   -0.6992 C.3     1  LIG1        0.1609
      8 C           0.1659    0.5103   -0.7468 C.3     1  LIG1        0.1791
      9 C          -2.1361    0.8220    0.3688 C.ar    1  LIG1       -0.0075
     10 C          -1.5013   -1.5094   -0.4198 C.ar    1  LIG1       -0.0075
     11 C          -1.9054    0.6346    1.7449 C.ar    1  LIG1       -0.0554
     12 C          -2.8044   -2.0485   -0.3322 C.ar    1  LIG1       -0.0554
     13 C          -3.1304    1.7469   -0.0038 C.ar    1  LIG1       -0.0554
     14 C          -0.4274   -2.4090   -0.3061 C.ar    1  LIG1       -0.0554
     15 C           0.2802    2.0280   -1.0490 C.2     1  LIG1        0.0856
     16 C          -1.4011   -0.2982   -3.1360 C.3     1  LIG1        0.0382
     17 C          -2.6462    1.3298    2.7052 C.ar    1  LIG1       -0.0614
     18 C          -3.0204   -3.4117   -0.1163 C.ar    1  LIG1       -0.0614
     19 C          -3.8780    2.4346    0.9564 C.ar    1  LIG1       -0.0614
     20 C          -0.6430   -3.7737   -0.0835 C.ar    1  LIG1       -0.0614
     21 C          -3.6366    2.2247    2.3111 C.ar    1  LIG1       -0.0617
     22 C          -1.9372   -4.2745    0.0130 C.ar    1  LIG1       -0.0617
     23 C           2.2200    0.1623    0.4183 C.ar    1  LIG1        0.3191
     24 C           4.1815   -0.2001    1.5406 C.ar    1  LIG1        0.0453
     25 C           4.1523   -0.0101   -0.7994 C.ar    1  LIG1        0.0453
     26 C           4.8885   -0.1824    0.3541 C.ar    1  LIG1       -0.0193
     27 C           4.8930   -0.4125    2.8412 C.3     1  LIG1       -0.0221
     28 C           4.8222    0.0071   -2.1389 C.3     1  LIG1       -0.0221
     29 H           0.6553   -0.0275   -1.5668 H       1  LIG1        0.0834
     30 H          -1.1280   -0.0488    2.0787 H       1  LIG1        0.0621
     31 H          -3.6638   -1.3886   -0.4436 H       1  LIG1        0.0621
     32 H          -3.3177    1.9512   -1.0563 H       1  LIG1        0.0621
     33 H           0.6015   -2.0741   -0.3950 H       1  LIG1        0.0621
     34 H          -2.1061   -0.1819   -3.9647 H       1  LIG1        0.0524
     35 H          -1.1695   -1.3628   -3.0463 H       1  LIG1        0.0524
     36 H          -0.5011    0.2583   -3.3984 H       1  LIG1        0.0524
     37 H          -2.4303    1.1816    3.7582 H       1  LIG1        0.0618
     38 H          -4.0348   -3.7921   -0.0529 H       1  LIG1        0.0618
     39 H          -4.6312    3.1491    0.6377 H       1  LIG1        0.0618
     40 H           0.2103   -4.4405    0.0110 H       1  LIG1        0.0618
     41 H          -4.2020    2.7752    3.0562 H       1  LIG1        0.0618
     42 H          -2.0997   -5.3338    0.1828 H       1  LIG1        0.0618
     43 H           5.9629   -0.3030    0.3295 H       1  LIG1        0.0653
     44 H           4.1937   -0.3685    3.6821 H       1  LIG1        0.0293
     45 H           5.6534    0.3600    2.9895 H       1  LIG1        0.0293
     46 H           5.3740   -1.3963    2.8504 H       1  LIG1        0.0293
     47 H           4.0967    0.2000   -2.9363 H       1  LIG1        0.0293
     48 H           5.2952   -0.9597   -2.3357 H       1  LIG1        0.0293
     49 H           5.5820    0.7935   -2.1740 H       1  LIG1        0.0293
@<TRIPOS>BOND
     1     1     7    1
     2     1    16    1
     3     2     8    1
     4     2    23    1
     5     3    15   ar
     6     4    15   ar
     7     5    23   ar
     8     5    24   ar
     9     6    23   ar
    10     6    25   ar
    11     7     8    1
    12     7     9    1
    13     7    10    1
    14     8    15    1
    15     9    11   ar
    16     9    13   ar
    17    10    12   ar
    18    10    14   ar
    19    11    17   ar
    20    12    18   ar
    21    13    19   ar
    22    14    20   ar
    23    17    21   ar
    24    18    22   ar
    25    19    21   ar
    26    20    22   ar
    27    24    26   ar
    28    24    27    1
    29    25    26   ar
    30    25    28    1
    31     8    29    1
    32    11    30    1
    33    12    31    1
    34    13    32    1
    35    14    33    1
    36    16    34    1
    37    16    35    1
    38    16    36    1
    39    17    37    1
    40    18    38    1
    41    19    39    1
    42    20    40    1
    43    21    41    1
    44    22    42    1
    45    26    43    1
    46    27    44    1
    47    27    45    1
    48    27    46    1
    49    28    47    1
    50    28    48    1
    51    28    49    1
@<TRIPOS>MOLECULE
6918493
 49 51 0 0 0
SMALL
GASTEIGER

@<TRIPOS>ATOM
      1 O          -2.0042    0.2820   -1.9689 O.3     1  LIG1       -0.3632
      2 O           0.7842    0.4045    0.5940 O.3     1  LIG1       -0.4495
      3 O           0.2259    2.9832   -0.2199 O.co2   1  LIG1       -0.5459
      4 O           0.3385    2.3101   -2.3870 O.co2   1  LIG1       -0.5459
      5 N           2.5857    1.1069    1.8353 N.ar    1  LIG1       -0.2002
      6 N           2.8439    0.6670   -0.4941 N.ar    1  LIG1       -0.2002
      7 C          -1.3129    0.0835   -0.6974 C.3     1  LIG1        0.1609
      8 C           0.1606    0.6163   -0.7100 C.3     1  LIG1        0.1791
      9 C          -2.1517    0.8489    0.3693 C.ar    1  LIG1       -0.0075
     10 C          -1.4451   -1.4603   -0.4464 C.ar    1  LIG1       -0.0075
     11 C          -2.1383    0.4716    1.7268 C.ar    1  LIG1       -0.0554
     12 C          -2.7311   -2.0483   -0.4539 C.ar    1  LIG1       -0.0554
     13 C          -2.9233    1.9703    0.0132 C.ar    1  LIG1       -0.0554
     14 C          -0.3479   -2.3140   -0.2452 C.ar    1  LIG1       -0.0554
     15 C           0.2249    2.1116   -1.1366 C.2     1  LIG1        0.0856
     16 C          -1.3891   -0.2578   -3.1297 C.3     1  LIG1        0.0382
     17 C          -2.8935    1.1628    2.6780 C.ar    1  LIG1       -0.0614
     18 C          -2.9101   -3.4187   -0.2560 C.ar    1  LIG1       -0.0614
     19 C          -3.6705    2.6679    0.9658 C.ar    1  LIG1       -0.0614
     20 C          -0.5274   -3.6872   -0.0455 C.ar    1  LIG1       -0.0614
     21 C          -3.6622    2.2591    2.2965 C.ar    1  LIG1       -0.0617
     22 C          -1.8061   -4.2385   -0.0497 C.ar    1  LIG1       -0.0617
     23 C           2.1085    0.7793    0.6241 C.ar    1  LIG1        0.3191
     24 C           3.8652    1.5189    1.8780 C.ar    1  LIG1        0.0453
     25 C           4.1157    1.0930   -0.4207 C.ar    1  LIG1        0.0453
     26 C           4.6768    1.5401    0.7590 C.ar    1  LIG1       -0.0193
     27 C           4.3874    1.9935    3.1987 C.3     1  LIG1       -0.0221
     28 C           4.9088    1.0942   -1.6908 C.3     1  LIG1       -0.0221
     29 H           0.7246    0.0371   -1.4532 H       1  LIG1        0.0834
     30 H          -1.5181   -0.3600    2.0549 H       1  LIG1        0.0621
     31 H          -3.6034   -1.4175   -0.6227 H       1  LIG1        0.0621
     32 H          -2.9097    2.3319   -1.0140 H       1  LIG1        0.0621
     33 H           0.6701   -1.9320   -0.2398 H       1  LIG1        0.0621
     34 H          -2.0210   -0.0034   -3.9857 H       1  LIG1        0.0524
     35 H          -1.3272   -1.3480   -3.0812 H       1  LIG1        0.0524
     36 H          -0.3996    0.1574   -3.3189 H       1  LIG1        0.0524
     37 H          -2.8574    0.8560    3.7184 H       1  LIG1        0.0618
     38 H          -3.9116   -3.8377   -0.2655 H       1  LIG1        0.0618
     39 H          -4.2313    3.5465    0.6643 H       1  LIG1        0.0618
     40 H           0.3396   -4.3228    0.1131 H       1  LIG1        0.0618
     41 H          -4.2283    2.8128    3.0379 H       1  LIG1        0.0618
     42 H          -1.9401   -5.3052    0.1053 H       1  LIG1        0.0618
     43 H           5.6966    1.8975    0.8027 H       1  LIG1        0.0653
     44 H           3.6261    1.8934    3.9792 H       1  LIG1        0.0293
     45 H           4.6724    3.0482    3.1349 H       1  LIG1        0.0293
     46 H           5.2594    1.4030    3.4964 H       1  LIG1        0.0293
     47 H           4.3171    0.6954   -2.5214 H       1  LIG1        0.0293
     48 H           5.8024    0.4727   -1.5806 H       1  LIG1        0.0293
     49 H           5.2095    2.1148   -1.9470 H       1  LIG1        0.0293
@<TRIPOS>BOND
     1     1     7    1
     2     1    16    1
     3     2     8    1
     4     2    23    1
     5     3    15   ar
     6     4    15   ar
     7     5    23   ar
     8     5    24   ar
     9     6    23   ar
    10     6    25   ar
    11     7     8    1
    12     7     9    1
    13     7    10    1
    14     8    15    1
    15     9    11   ar
    16     9    13   ar
    17    10    12   ar
    18    10    14   ar
    19    11    17   ar
    20    12    18   ar
    21    13    19   ar
    22    14    20   ar
    23    17    21   ar
    24    18    22   ar
    25    19    21   ar
    26    20    22   ar
    27    24    26   ar
    28    24    27    1
    29    25    26   ar
    30    25    28    1
    31     8    29    1
    32    11    30    1
    33    12    31    1
    34    13    32    1
    35    14    33    1
    36    16    34    1
    37    16    35    1
    38    16    36    1
    39    17    37    1
    40    18    38    1
    41    19    39    1
    42    20    40    1
    43    21    41    1
    44    22    42    1
    45    26    43    1
    46    27    44    1
    47    27    45    1
    48    27    46    1
    49    28    47    1
    50    28    48    1
    51    28    49    1
@<TRIPOS>MOLECULE
6918493
 49 51 0 0 0
SMALL
GASTEIGER

@<TRIPOS>ATOM
      1 O          -2.0079    0.2865   -1.9735 O.3     1  LIG1       -0.3632
      2 O           0.7808    0.4198    0.5867 O.3     1  LIG1       -0.4495
      3 O           0.2116    2.9969   -0.2186 O.co2   1  LIG1       -0.5459
      4 O           0.3244    2.3306   -2.3880 O.co2   1  LIG1       -0.5459
      5 N           2.8420    0.6853   -0.4988 N.ar    1  LIG1       -0.2002
      6 N           2.5856    1.0965    1.8357 N.ar    1  LIG1       -0.2002
      7 C          -1.3157    0.0942   -0.7017 C.3     1  LIG1        0.1609
      8 C           0.1565    0.6319   -0.7157 C.3     1  LIG1        0.1791
      9 C          -2.1565    0.8567    0.3662 C.ar    1  LIG1       -0.0075
     10 C          -1.4423   -1.4492   -0.4461 C.ar    1  LIG1       -0.0075
     11 C          -2.1134    0.4977    1.7276 C.ar    1  LIG1       -0.0554
     12 C          -2.7269   -2.0397   -0.4432 C.ar    1  LIG1       -0.0554
     13 C          -2.9612    1.9534    0.0065 C.ar    1  LIG1       -0.0554
     14 C          -0.3416   -2.2994   -0.2504 C.ar    1  LIG1       -0.0554
     15 C           0.2132    2.1282   -1.1381 C.2     1  LIG1        0.0856
     16 C          -1.3894   -0.2507   -3.1334 C.3     1  LIG1        0.0382
     17 C          -2.8705    1.1830    2.6814 C.ar    1  LIG1       -0.0614
     18 C          -2.9019   -3.4102   -0.2392 C.ar    1  LIG1       -0.0614
     19 C          -3.7123    2.6437    0.9610 C.ar    1  LIG1       -0.0614
     20 C          -0.5166   -3.6728   -0.0443 C.ar    1  LIG1       -0.0614
     21 C          -3.6731    2.2539    2.2970 C.ar    1  LIG1       -0.0617
     22 C          -1.7944   -4.2271   -0.0376 C.ar    1  LIG1       -0.0617
     23 C           2.1060    0.7898    0.6198 C.ar    1  LIG1        0.3191
     24 C           4.1188    1.0943   -0.4170 C.ar    1  LIG1        0.0453
     25 C           3.8689    1.4917    1.8865 C.ar    1  LIG1        0.0453
     26 C           4.6835    1.5188    0.7697 C.ar    1  LIG1       -0.0193
     27 C           4.9153    1.1014   -1.6848 C.3     1  LIG1       -0.0221
     28 C           4.3947    1.9403    3.2153 C.3     1  LIG1       -0.0221
     29 H           0.7216    0.0567   -1.4611 H       1  LIG1        0.0834
     30 H          -1.4687   -0.3137    2.0568 H       1  LIG1        0.0621
     31 H          -3.6019   -1.4118   -0.6081 H       1  LIG1        0.0621
     32 H          -2.9732    2.3007   -1.0253 H       1  LIG1        0.0621
     33 H           0.6752   -1.9155   -0.2534 H       1  LIG1        0.0621
     34 H          -2.0266   -0.0077   -3.9888 H       1  LIG1        0.0524
     35 H          -1.3138   -1.3399   -3.0805 H       1  LIG1        0.0524
     36 H          -0.4059    0.1764   -3.3269 H       1  LIG1        0.0524
     37 H          -2.8103    0.8922    3.7255 H       1  LIG1        0.0618
     38 H          -3.9021   -3.8312   -0.2402 H       1  LIG1        0.0618
     39 H          -4.3017    3.5028    0.6570 H       1  LIG1        0.0618
     40 H           0.3526   -4.3056    0.1104 H       1  LIG1        0.0618
     41 H          -4.2423    2.8033    3.0403 H       1  LIG1        0.0618
     42 H          -1.9248   -5.2924    0.1224 H       1  LIG1        0.0618
     43 H           5.7072    1.8623    0.8201 H       1  LIG1        0.0653
     44 H           4.3253    0.7086   -2.5195 H       1  LIG1        0.0293
     45 H           5.8077    0.4773   -1.5761 H       1  LIG1        0.0293
     46 H           5.2191    2.1230   -1.9339 H       1  LIG1        0.0293
     47 H           3.6344    1.8267    3.9952 H       1  LIG1        0.0293
     48 H           4.6817    2.9956    3.1710 H       1  LIG1        0.0293
     49 H           5.2659    1.3426    3.5007 H       1  LIG1        0.0293
@<TRIPOS>BOND
     1     1     7    1
     2     1    16    1
     3     2     8    1
     4     2    23    1
     5     3    15   ar
     6     4    15   ar
     7     5    23   ar
     8     5    24   ar
     9     6    23   ar
    10     6    25   ar
    11     7     8    1
    12     7     9    1
    13     7    10    1
    14     8    15    1
    15     9    11   ar
    16     9    13   ar
    17    10    12   ar
    18    10    14   ar
    19    11    17   ar
    20    12    18   ar
    21    13    19   ar
    22    14    20   ar
    23    17    21   ar
    24    18    22   ar
    25    19    21   ar
    26    20    22   ar
    27    24    26   ar
    28    24    27    1
    29    25    26   ar
    30    25    28    1
    31     8    29    1
    32    11    30    1
    33    12    31    1
    34    13    32    1
    35    14    33    1
    36    16    34    1
    37    16    35    1
    38    16    36    1
    39    17    37    1
    40    18    38    1
    41    19    39    1
    42    20    40    1
    43    21    41    1
    44    22    42    1
    45    26    43    1
    46    27    44    1
    47    27    45    1
    48    27    46    1
    49    28    47    1
    50    28    48    1
    51    28    49    1
@<TRIPOS>MOLECULE
6918493
 49 51 0 0 0
SMALL
GASTEIGER

@<TRIPOS>ATOM
      1 O          -2.0044    0.2859   -1.9761 O.3     1  LIG1       -0.3632
      2 O           0.7821    0.4218    0.5860 O.3     1  LIG1       -0.4495
      3 O           0.2103    2.9980   -0.2276 O.co2   1  LIG1       -0.5459
      4 O           0.3346    2.3241   -2.3943 O.co2   1  LIG1       -0.5459
      5 N           2.5843    1.1100    1.8327 N.ar    1  LIG1       -0.2002
      6 N           2.8452    0.6773   -0.4968 N.ar    1  LIG1       -0.2002
      7 C          -1.3128    0.0930   -0.7042 C.3     1  LIG1        0.1609
      8 C           0.1590    0.6304   -0.7179 C.3     1  LIG1        0.1791
      9 C          -2.1540    0.8552    0.3635 C.ar    1  LIG1       -0.0075
     10 C          -1.4396   -1.4505   -0.4485 C.ar    1  LIG1       -0.0075
     11 C          -2.1127    0.4951    1.7250 C.ar    1  LIG1       -0.0554
     12 C          -0.3391   -2.3004   -0.2482 C.ar    1  LIG1       -0.0554
     13 C          -2.9577    1.9527    0.0042 C.ar    1  LIG1       -0.0554
     14 C          -2.7240   -2.0416   -0.4496 C.ar    1  LIG1       -0.0554
     15 C           0.2172    2.1248   -1.1444 C.2     1  LIG1        0.0856
     16 C          -1.3866   -0.2532   -3.1357 C.3     1  LIG1        0.0382
     17 C          -2.8704    1.1801    2.6787 C.ar    1  LIG1       -0.0614
     18 C          -0.5148   -3.6729   -0.0422 C.ar    1  LIG1       -0.0614
     19 C          -3.7094    2.6425    0.9588 C.ar    1  LIG1       -0.0614
     20 C          -2.8990   -3.4118   -0.2455 C.ar    1  LIG1       -0.0614
     21 C          -3.6718    2.2516    2.2946 C.ar    1  LIG1       -0.0617
     22 C          -1.7919   -4.2282   -0.0395 C.ar    1  LIG1       -0.0617
     23 C           2.1072    0.7921    0.6188 C.ar    1  LIG1        0.3191
     24 C           3.8678    1.5058    1.8831 C.ar    1  LIG1        0.0453
     25 C           4.1224    1.0861   -0.4162 C.ar    1  LIG1        0.0453
     26 C           4.6841    1.5221    0.7679 C.ar    1  LIG1       -0.0193
     27 C           4.3897    1.9674    3.2078 C.3     1  LIG1       -0.0221
     28 C           4.9221    1.0806   -1.6823 C.3     1  LIG1       -0.0221
     29 H           0.7252    0.0530   -1.4608 H       1  LIG1        0.0834
     30 H          -1.4685   -0.3173    2.0540 H       1  LIG1        0.0621
     31 H           0.6772   -1.9158   -0.2478 H       1  LIG1        0.0621
     32 H          -2.9683    2.3009   -1.0274 H       1  LIG1        0.0621
     33 H          -3.5988   -1.4139   -0.6175 H       1  LIG1        0.0621
     34 H          -2.0214   -0.0063   -3.9920 H       1  LIG1        0.0524
     35 H          -1.3165   -1.3429   -3.0837 H       1  LIG1        0.0524
     36 H          -0.4005    0.1691   -3.3274 H       1  LIG1        0.0524
     37 H          -2.8113    0.8879    3.7222 H       1  LIG1        0.0618
     38 H           0.3546   -4.3058    0.1163 H       1  LIG1        0.0618
     39 H          -4.2979    3.5025    0.6547 H       1  LIG1        0.0618
     40 H          -3.8993   -3.8334   -0.2498 H       1  LIG1        0.0618
     41 H          -4.2412    2.8004    3.0372 H       1  LIG1        0.0618
     42 H          -1.9225   -5.2939    0.1207 H       1  LIG1        0.0618
     43 H           5.7081    1.8658    0.8172 H       1  LIG1        0.0653
     44 H           3.6275    1.8617    3.9875 H       1  LIG1        0.0293
     45 H           4.6768    3.0225    3.1540 H       1  LIG1        0.0293
     46 H           5.2603    1.3728    3.5018 H       1  LIG1        0.0293
     47 H           4.3342    0.6789   -2.5140 H       1  LIG1        0.0293
     48 H           5.8142    0.4575   -1.5647 H       1  LIG1        0.0293
     49 H           5.2263    2.0994   -1.9409 H       1  LIG1        0.0293
@<TRIPOS>BOND
     1     1     7    1
     2     1    16    1
     3     2     8    1
     4     2    23    1
     5     3    15   ar
     6     4    15   ar
     7     5    23   ar
     8     5    24   ar
     9     6    23   ar
    10     6    25   ar
    11     7     8    1
    12     7     9    1
    13     7    10    1
    14     8    15    1
    15     9    11   ar
    16     9    13   ar
    17    10    12   ar
    18    10    14   ar
    19    11    17   ar
    20    12    18   ar
    21    13    19   ar
    22    14    20   ar
    23    17    21   ar
    24    18    22   ar
    25    19    21   ar
    26    20    22   ar
    27    24    26   ar
    28    24    27    1
    29    25    26   ar
    30    25    28    1
    31     8    29    1
    32    11    30    1
    33    12    31    1
    34    13    32    1
    35    14    33    1
    36    16    34    1
    37    16    35    1
    38    16    36    1
    39    17    37    1
    40    18    38    1
    41    19    39    1
    42    20    40    1
    43    21    41    1
    44    22    42    1
    45    26    43    1
    46    27    44    1
    47    27    45    1
    48    27    46    1
    49    28    47    1
    50    28    48    1
    51    28    49    1
@<TRIPOS>MOLECULE
6918493
 49 51 0 0 0
SMALL
GASTEIGER

@<TRIPOS>ATOM
      1 O          -2.0057    0.2820   -1.9729 O.3     1  LIG1       -0.3632
      2 O           0.7830    0.4130    0.5882 O.3     1  LIG1       -0.4495
      3 O           0.2180    2.9891   -0.2270 O.co2   1  LIG1       -0.5459
      4 O           0.3314    2.3156   -2.3939 O.co2   1  LIG1       -0.5459
      5 N           2.8426    0.6832   -0.4992 N.ar    1  LIG1       -0.2002
      6 N           2.5865    1.0989    1.8345 N.ar    1  LIG1       -0.2002
      7 C          -1.3132    0.0861   -0.7018 C.3     1  LIG1        0.1609
      8 C           0.1591    0.6222   -0.7157 C.3     1  LIG1        0.1791
      9 C          -2.1531    0.8494    0.3660 C.ar    1  LIG1       -0.0075
     10 C          -1.4416   -1.4576   -0.4489 C.ar    1  LIG1       -0.0075
     11 C          -2.1280    0.4778    1.7249 C.ar    1  LIG1       -0.0554
     12 C          -0.3420   -2.3082   -0.2458 C.ar    1  LIG1       -0.0554
     13 C          -2.9378    1.9614    0.0096 C.ar    1  LIG1       -0.0554
     14 C          -2.7262   -2.0484   -0.4554 C.ar    1  LIG1       -0.0554
     15 C           0.2191    2.1173   -1.1426 C.2     1  LIG1        0.0856
     16 C          -1.3900   -0.2573   -3.1336 C.3     1  LIG1        0.0382
     17 C          -2.8843    1.1659    2.6778 C.ar    1  LIG1       -0.0614
     18 C          -0.5189   -3.6816   -0.0428 C.ar    1  LIG1       -0.0614
     19 C          -3.6867    2.6550    0.9637 C.ar    1  LIG1       -0.0614
     20 C          -2.9021   -3.4190   -0.2546 C.ar    1  LIG1       -0.0614
     21 C          -3.6663    2.2524    2.2961 C.ar    1  LIG1       -0.0617
     22 C          -1.7963   -4.2360   -0.0463 C.ar    1  LIG1       -0.0617
     23 C           2.1076    0.7863    0.6200 C.ar    1  LIG1        0.3191
     24 C           4.1165    1.1018   -0.4211 C.ar    1  LIG1        0.0453
     25 C           3.8681    1.5032    1.8819 C.ar    1  LIG1        0.0453
     26 C           4.6799    1.5328    0.7636 C.ar    1  LIG1       -0.0193
     27 C           4.9098    1.1125   -1.6908 C.3     1  LIG1       -0.0221
     28 C           4.3928    1.9587    3.2086 C.3     1  LIG1       -0.0221
     29 H           0.7244    0.0438   -1.4586 H       1  LIG1        0.0834
     30 H          -1.4981   -0.3462    2.0529 H       1  LIG1        0.0621
     31 H           0.6743   -1.9240   -0.2407 H       1  LIG1        0.0621
     32 H          -2.9340    2.3185   -1.0191 H       1  LIG1        0.0621
     33 H          -3.6001   -1.4200   -0.6254 H       1  LIG1        0.0621
     34 H          -2.0229   -0.0047   -3.9896 H       1  LIG1        0.0524
     35 H          -1.3260   -1.3475   -3.0844 H       1  LIG1        0.0524
     36 H          -0.4013    0.1596   -3.3236 H       1  LIG1        0.0524
     37 H          -2.8389    0.8638    3.7194 H       1  LIG1        0.0618
     38 H           0.3494   -4.3145    0.1177 H       1  LIG1        0.0618
     39 H          -4.2587    3.5266    0.6617 H       1  LIG1        0.0618
     40 H          -3.9028   -3.8402   -0.2636 H       1  LIG1        0.0618
     41 H          -4.2337    2.8036    3.0386 H       1  LIG1        0.0618
     42 H          -1.9280   -5.3020    0.1112 H       1  LIG1        0.0618
     43 H           5.7015    1.8842    0.8113 H       1  LIG1        0.0653
     44 H           4.3180    0.7215   -2.5249 H       1  LIG1        0.0293
     45 H           5.8029    0.4888   -1.5856 H       1  LIG1        0.0293
     46 H           5.2122    2.1349   -1.9383 H       1  LIG1        0.0293
     47 H           3.6326    1.8491    3.9887 H       1  LIG1        0.0293
     48 H           4.6797    3.0139    3.1589 H       1  LIG1        0.0293
     49 H           5.2643    1.3628    3.4970 H       1  LIG1        0.0293
@<TRIPOS>BOND
     1     1     7    1
     2     1    16    1
     3     2     8    1
     4     2    23    1
     5     3    15   ar
     6     4    15   ar
     7     5    23   ar
     8     5    24   ar
     9     6    23   ar
    10     6    25   ar
    11     7     8    1
    12     7     9    1
    13     7    10    1
    14     8    15    1
    15     9    11   ar
    16     9    13   ar
    17    10    12   ar
    18    10    14   ar
    19    11    17   ar
    20    12    18   ar
    21    13    19   ar
    22    14    20   ar
    23    17    21   ar
    24    18    22   ar
    25    19    21   ar
    26    20    22   ar
    27    24    26   ar
    28    24    27    1
    29    25    26   ar
    30    25    28    1
    31     8    29    1
    32    11    30    1
    33    12    31    1
    34    13    32    1
    35    14    33    1
    36    16    34    1
    37    16    35    1
    38    16    36    1
    39    17    37    1
    40    18    38    1
    41    19    39    1
    42    20    40    1
    43    21    41    1
    44    22    42    1
    45    26    43    1
    46    27    44    1
    47    27    45    1
    48    27    46    1
    49    28    47    1
    50    28    48    1
    51    28    49    1
@<TRIPOS>MOLECULE
6918493
 49 51 0 0 0
SMALL
GASTEIGER

@<TRIPOS>ATOM
      1 O          -2.0360    0.1940   -1.9775 O.3     1  LIG1       -0.3632
      2 O           0.8440    0.1379    0.4834 O.3     1  LIG1       -0.4495
      3 O           0.5283    2.7544   -0.0740 O.co2   1  LIG1       -0.5459
      4 O           0.2363    2.3119   -2.2842 O.co2   1  LIG1       -0.5459
      5 N           2.8217    0.0904   -0.7889 N.ar    1  LIG1       -0.2002
      6 N           2.8407   -0.0480    1.5860 N.ar    1  LIG1       -0.2002
      7 C          -1.3271    0.0048   -0.7143 C.3     1  LIG1        0.1609
      8 C           0.1685    0.4723   -0.7635 C.3     1  LIG1        0.1791
      9 C          -2.1197    0.8119    0.3575 C.ar    1  LIG1       -0.0075
     10 C          -1.5194   -1.5292   -0.4363 C.ar    1  LIG1       -0.0075
     11 C          -3.0558    1.7964   -0.0109 C.ar    1  LIG1       -0.0554
     12 C          -0.4559   -2.4438   -0.3448 C.ar    1  LIG1       -0.0554
     13 C          -1.9261    0.5794    1.7326 C.ar    1  LIG1       -0.0554
     14 C          -2.8278   -2.0494   -0.3198 C.ar    1  LIG1       -0.0554
     15 C           0.3002    1.9903   -1.0573 C.2     1  LIG1        0.0856
     16 C          -1.4132   -0.3046   -3.1510 C.3     1  LIG1        0.0382
     17 C          -3.7885    2.4958    0.9517 C.ar    1  LIG1       -0.0614
     18 C          -0.6861   -3.8044   -0.1119 C.ar    1  LIG1       -0.0614
     19 C          -2.6543    1.2832    2.6958 C.ar    1  LIG1       -0.0614
     20 C          -3.0582   -3.4079   -0.0913 C.ar    1  LIG1       -0.0614
     21 C          -3.5907    2.2364    2.3047 C.ar    1  LIG1       -0.0617
     22 C          -1.9849   -4.2856    0.0178 C.ar    1  LIG1       -0.0617
     23 C           2.2174    0.1300    0.4094 C.ar    1  LIG1        0.3191
     24 C           4.1611   -0.0089   -0.7946 C.ar    1  LIG1        0.0453
     25 C           4.1802   -0.1600    1.5490 C.ar    1  LIG1        0.0453
     26 C           4.8947   -0.1414    0.3665 C.ar    1  LIG1       -0.0193
     27 C           4.8404    0.0086   -2.1288 C.3     1  LIG1       -0.0221
     28 C           4.8893   -0.3291    2.8575 C.3     1  LIG1       -0.0221
     29 H           0.6534   -0.0666   -1.5870 H       1  LIG1        0.0834
     30 H          -3.2048    2.0388   -1.0616 H       1  LIG1        0.0621
     31 H           0.5754   -2.1221   -0.4567 H       1  LIG1        0.0621
     32 H          -1.1872   -0.1483    2.0630 H       1  LIG1        0.0621
     33 H          -3.6800   -1.3772   -0.4138 H       1  LIG1        0.0621
     34 H          -2.1300   -0.2075   -3.9719 H       1  LIG1        0.0524
     35 H          -1.1554   -1.3628   -3.0603 H       1  LIG1        0.0524
     36 H          -0.5292    0.2714   -3.4254 H       1  LIG1        0.0524
     37 H          -4.4949    3.2574    0.6374 H       1  LIG1        0.0618
     38 H           0.1591   -4.4829   -0.0348 H       1  LIG1        0.0618
     39 H          -2.4712    1.0954    3.7494 H       1  LIG1        0.0618
     40 H          -4.0768   -3.7728   -0.0006 H       1  LIG1        0.0618
     41 H          -4.1456    2.7934    3.0527 H       1  LIG1        0.0618
     42 H          -2.1588   -5.3413    0.1984 H       1  LIG1        0.0618
     43 H           5.9725   -0.2290    0.3510 H       1  LIG1        0.0653
     44 H           4.1176    0.1808   -2.9334 H       1  LIG1        0.0293
     45 H           5.3332   -0.9516   -2.3133 H       1  LIG1        0.0293
     46 H           5.5859    0.8085   -2.1661 H       1  LIG1        0.0293
     47 H           4.1851   -0.2741    3.6943 H       1  LIG1        0.0293
     48 H           5.6371    0.4591    2.9901 H       1  LIG1        0.0293
     49 H           5.3853   -1.3046    2.8935 H       1  LIG1        0.0293
@<TRIPOS>BOND
     1     1     7    1
     2     1    16    1
     3     2     8    1
     4     2    23    1
     5     3    15   ar
     6     4    15   ar
     7     5    23   ar
     8     5    24   ar
     9     6    23   ar
    10     6    25   ar
    11     7     8    1
    12     7     9    1
    13     7    10    1
    14     8    15    1
    15     9    11   ar
    16     9    13   ar
    17    10    12   ar
    18    10    14   ar
    19    11    17   ar
    20    12    18   ar
    21    13    19   ar
    22    14    20   ar
    23    17    21   ar
    24    18    22   ar
    25    19    21   ar
    26    20    22   ar
    27    24    26   ar
    28    24    27    1
    29    25    26   ar
    30    25    28    1
    31     8    29    1
    32    11    30    1
    33    12    31    1
    34    13    32    1
    35    14    33    1
    36    16    34    1
    37    16    35    1
    38    16    36    1
    39    17    37    1
    40    18    38    1
    41    19    39    1
    42    20    40    1
    43    21    41    1
    44    22    42    1
    45    26    43    1
    46    27    44    1
    47    27    45    1
    48    27    46    1
    49    28    47    1
    50    28    48    1
    51    28    49    1
@<TRIPOS>MOLECULE
6918493
 49 51 0 0 0
SMALL
GASTEIGER

@<TRIPOS>ATOM
      1 O          -2.0378    0.1899   -1.9771 O.3     1  LIG1       -0.3632
      2 O           0.8421    0.1328    0.4838 O.3     1  LIG1       -0.4495
      3 O           0.5278    2.7503   -0.0706 O.co2   1  LIG1       -0.5459
      4 O           0.2301    2.3112   -2.2811 O.co2   1  LIG1       -0.5459
      5 N           2.8382   -0.0606    1.5861 N.ar    1  LIG1       -0.2002
      6 N           2.8215    0.1030   -0.7879 N.ar    1  LIG1       -0.2002
      7 C          -1.3285    0.0011   -0.7140 C.3     1  LIG1        0.1609
      8 C           0.1672    0.4692   -0.7627 C.3     1  LIG1        0.1791
      9 C          -2.1213    0.8082    0.3577 C.ar    1  LIG1       -0.0075
     10 C          -1.5204   -1.5330   -0.4360 C.ar    1  LIG1       -0.0075
     11 C          -3.0546    1.7947   -0.0111 C.ar    1  LIG1       -0.0554
     12 C          -0.4567   -2.4473   -0.3461 C.ar    1  LIG1       -0.0554
     13 C          -1.9295    0.5739    1.7332 C.ar    1  LIG1       -0.0554
     14 C          -2.8289   -2.0530   -0.3184 C.ar    1  LIG1       -0.0554
     15 C           0.2974    1.9876   -1.0548 C.2     1  LIG1        0.0856
     16 C          -1.4140   -0.3075   -3.1506 C.3     1  LIG1        0.0382
     17 C          -3.7868    2.4951    0.9515 C.ar    1  LIG1       -0.0614
     18 C          -0.6861   -3.8071   -0.1123 C.ar    1  LIG1       -0.0614
     19 C          -2.6577    1.2779    2.6960 C.ar    1  LIG1       -0.0614
     20 C          -3.0586   -3.4119   -0.0893 C.ar    1  LIG1       -0.0614
     21 C          -3.5915    2.2334    2.3050 C.ar    1  LIG1       -0.0617
     22 C          -1.9848   -4.2886    0.0189 C.ar    1  LIG1       -0.0617
     23 C           2.2161    0.1281    0.4100 C.ar    1  LIG1        0.3191
     24 C           4.1788   -0.1682    1.5489 C.ar    1  LIG1        0.0453
     25 C           4.1613    0.0086   -0.7933 C.ar    1  LIG1        0.0453
     26 C           4.8942   -0.1342    0.3674 C.ar    1  LIG1       -0.0193
     27 C           4.8871   -0.3495    2.8562 C.3     1  LIG1       -0.0221
     28 C           4.8416    0.0438   -2.1266 C.3     1  LIG1       -0.0221
     29 H           0.6521   -0.0688   -1.5868 H       1  LIG1        0.0834
     30 H          -3.2019    2.0386   -1.0610 H       1  LIG1        0.0621
     31 H           0.5743   -2.1254   -0.4592 H       1  LIG1        0.0621
     32 H          -1.1923   -0.1557    2.0634 H       1  LIG1        0.0621
     33 H          -3.6810   -1.3813   -0.4116 H       1  LIG1        0.0621
     34 H          -2.1310   -0.2114   -3.9715 H       1  LIG1        0.0524
     35 H          -1.1546   -1.3654   -3.0602 H       1  LIG1        0.0524
     36 H          -0.5309    0.2700   -3.4248 H       1  LIG1        0.0524
     37 H          -4.4914    3.2588    0.6371 H       1  LIG1        0.0618
     38 H           0.1590   -4.4860   -0.0353 H       1  LIG1        0.0618
     39 H          -2.4766    1.0886    3.7492 H       1  LIG1        0.0618
     40 H          -4.0771   -3.7771    0.0024 H       1  LIG1        0.0618
     41 H          -4.1461    2.7911    3.0524 H       1  LIG1        0.0618
     42 H          -2.1585   -5.3448    0.2004 H       1  LIG1        0.0618
     43 H           5.9722   -0.2179    0.3516 H       1  LIG1        0.0653
     44 H           4.1818   -0.3072    3.6921 H       1  LIG1        0.0293
     45 H           5.6308    0.4405    2.9984 H       1  LIG1        0.0293
     46 H           5.3872   -1.3226    2.8812 H       1  LIG1        0.0293
     47 H           4.1193    0.2234   -2.9294 H       1  LIG1        0.0293
     48 H           5.3379   -0.9120   -2.3216 H       1  LIG1        0.0293
     49 H           5.5850    0.8469   -2.1534 H       1  LIG1        0.0293
@<TRIPOS>BOND
     1     1     7    1
     2     1    16    1
     3     2     8    1
     4     2    23    1
     5     3    15   ar
     6     4    15   ar
     7     5    23   ar
     8     5    24   ar
     9     6    23   ar
    10     6    25   ar
    11     7     8    1
    12     7     9    1
    13     7    10    1
    14     8    15    1
    15     9    11   ar
    16     9    13   ar
    17    10    12   ar
    18    10    14   ar
    19    11    17   ar
    20    12    18   ar
    21    13    19   ar
    22    14    20   ar
    23    17    21   ar
    24    18    22   ar
    25    19    21   ar
    26    20    22   ar
    27    24    26   ar
    28    24    27    1
    29    25    26   ar
    30    25    28    1
    31     8    29    1
    32    11    30    1
    33    12    31    1
    34    13    32    1
    35    14    33    1
    36    16    34    1
    37    16    35    1
    38    16    36    1
    39    17    37    1
    40    18    38    1
    41    19    39    1
    42    20    40    1
    43    21    41    1
    44    22    42    1
    45    26    43    1
    46    27    44    1
    47    27    45    1
    48    27    46    1
    49    28    47    1
    50    28    48    1
    51    28    49    1
@<TRIPOS>MOLECULE
6918493
 49 51 0 0 0
SMALL
GASTEIGER

@<TRIPOS>ATOM
      1 O          -2.0451    0.2380   -1.9686 O.3     1  LIG1       -0.3632
      2 O           0.8245    0.1258    0.5026 O.3     1  LIG1       -0.4495
      3 O           0.5908    2.7446   -0.0691 O.co2   1  LIG1       -0.5459
      4 O           0.2319    2.3128   -2.2718 O.co2   1  LIG1       -0.5459
      5 N           2.8092    0.0686   -0.7602 N.ar    1  LIG1       -0.2002
      6 N           2.8177   -0.0759    1.6150 N.ar    1  LIG1       -0.2002
      7 C          -1.3302    0.0093   -0.7159 C.3     1  LIG1        0.1609
      8 C           0.1671    0.4691   -0.7522 C.3     1  LIG1        0.1791
      9 C          -2.1083    0.8111    0.3681 C.ar    1  LIG1       -0.0075
     10 C          -1.5297   -1.5304   -0.4756 C.ar    1  LIG1       -0.0075
     11 C          -2.8560    1.9533    0.0238 C.ar    1  LIG1       -0.0554
     12 C          -2.8413   -2.0521   -0.4043 C.ar    1  LIG1       -0.0554
     13 C          -2.0697    0.4420    1.7265 C.ar    1  LIG1       -0.0554
     14 C          -0.4692   -2.4470   -0.3699 C.ar    1  LIG1       -0.0554
     15 C           0.3233    1.9860   -1.0473 C.2     1  LIG1        0.0856
     16 C          -1.4432   -0.2568   -3.1550 C.3     1  LIG1        0.0382
     17 C          -3.5654    2.6727    0.9886 C.ar    1  LIG1       -0.0614
     18 C          -3.0768   -3.4147   -0.2052 C.ar    1  LIG1       -0.0614
     19 C          -2.7854    1.1579    2.6907 C.ar    1  LIG1       -0.0614
     20 C          -0.7044   -3.8111   -0.1657 C.ar    1  LIG1       -0.0614
     21 C          -3.5378    2.2693    2.3205 C.ar    1  LIG1       -0.0617
     22 C          -2.0065   -4.2935   -0.0810 C.ar    1  LIG1       -0.0617
     23 C           2.1999    0.1086    0.4362 C.ar    1  LIG1        0.3191
     24 C           4.1480   -0.0336   -0.7620 C.ar    1  LIG1        0.0453
     25 C           4.1578   -0.1911    1.5815 C.ar    1  LIG1        0.0453
     26 C           4.8766   -0.1707    0.4017 C.ar    1  LIG1       -0.0193
     27 C           4.8304   -0.0131   -2.0944 C.3     1  LIG1       -0.0221
     28 C           4.8628   -0.3647    2.8917 C.3     1  LIG1       -0.0221
     29 H           0.6522   -0.0741   -1.5727 H       1  LIG1        0.0834
     30 H          -2.8607    2.3058   -1.0069 H       1  LIG1        0.0621
     31 H          -3.6894   -1.3764   -0.5085 H       1  LIG1        0.0621
     32 H          -1.4646   -0.4049    2.0436 H       1  LIG1        0.0621
     33 H           0.5657   -2.1240   -0.4458 H       1  LIG1        0.0621
     34 H          -2.1454   -0.0869   -3.9768 H       1  LIG1        0.0524
     35 H          -1.2552   -1.3322   -3.0988 H       1  LIG1        0.0524
     36 H          -0.5206    0.2678   -3.4041 H       1  LIG1        0.0524
     37 H          -4.1162    3.5605    0.6942 H       1  LIG1        0.0618
     38 H          -4.0975   -3.7814   -0.1493 H       1  LIG1        0.0618
     39 H          -2.7341    0.8549    3.7320 H       1  LIG1        0.0618
     40 H           0.1380   -4.4901   -0.0754 H       1  LIG1        0.0618
     41 H          -4.0768    2.8377    3.0709 H       1  LIG1        0.0618
     42 H          -2.1853   -5.3527    0.0775 H       1  LIG1        0.0618
     43 H           5.9542   -0.2603    0.3894 H       1  LIG1        0.0653
     44 H           4.1097    0.1644   -2.8995 H       1  LIG1        0.0293
     45 H           5.3206   -0.9736   -2.2813 H       1  LIG1        0.0293
     46 H           5.5782    0.7851   -2.1269 H       1  LIG1        0.0293
     47 H           4.1562   -0.3111    3.7261 H       1  LIG1        0.0293
     48 H           5.6105    0.4226    3.0282 H       1  LIG1        0.0293
     49 H           5.3576   -1.3402    2.9260 H       1  LIG1        0.0293
@<TRIPOS>BOND
     1     1     7    1
     2     1    16    1
     3     2     8    1
     4     2    23    1
     5     3    15   ar
     6     4    15   ar
     7     5    23   ar
     8     5    24   ar
     9     6    23   ar
    10     6    25   ar
    11     7     8    1
    12     7     9    1
    13     7    10    1
    14     8    15    1
    15     9    11   ar
    16     9    13   ar
    17    10    12   ar
    18    10    14   ar
    19    11    17   ar
    20    12    18   ar
    21    13    19   ar
    22    14    20   ar
    23    17    21   ar
    24    18    22   ar
    25    19    21   ar
    26    20    22   ar
    27    24    26   ar
    28    24    27    1
    29    25    26   ar
    30    25    28    1
    31     8    29    1
    32    11    30    1
    33    12    31    1
    34    13    32    1
    35    14    33    1
    36    16    34    1
    37    16    35    1
    38    16    36    1
    39    17    37    1
    40    18    38    1
    41    19    39    1
    42    20    40    1
    43    21    41    1
    44    22    42    1
    45    26    43    1
    46    27    44    1
    47    27    45    1
    48    27    46    1
    49    28    47    1
    50    28    48    1
    51    28    49    1
@<TRIPOS>MOLECULE
6918493
 49 51 0 0 0
SMALL
GASTEIGER

@<TRIPOS>ATOM
      1 O          -2.0332    0.2459   -1.9494 O.3     1  LIG1       -0.3632
      2 O           0.8210    0.2173    0.5453 O.3     1  LIG1       -0.4495
      3 O           0.5464    2.8158   -0.0852 O.co2   1  LIG1       -0.5459
      4 O           0.2128    2.3299   -2.2797 O.co2   1  LIG1       -0.5459
      5 N           2.8260   -0.0618    1.6254 N.ar    1  LIG1       -0.2002
      6 N           2.7865    0.1274   -0.7439 N.ar    1  LIG1       -0.2002
      7 C          -1.3253    0.0281   -0.6900 C.3     1  LIG1        0.1609
      8 C           0.1603    0.5202   -0.7198 C.3     1  LIG1        0.1791
      9 C          -2.1287    0.8201    0.3819 C.ar    1  LIG1       -0.0075
     10 C          -1.4917   -1.5159   -0.4512 C.ar    1  LIG1       -0.0075
     11 C          -2.8229    1.9948    0.0341 C.ar    1  LIG1       -0.0554
     12 C          -2.7904   -2.0723   -0.4339 C.ar    1  LIG1       -0.0554
     13 C          -2.1645    0.4177    1.7301 C.ar    1  LIG1       -0.0554
     14 C          -0.4127   -2.4029   -0.2942 C.ar    1  LIG1       -0.0554
     15 C           0.2997    2.0308   -1.0476 C.2     1  LIG1        0.0856
     16 C          -1.4267   -0.2641   -3.1277 C.3     1  LIG1        0.0382
     17 C          -3.5504    2.7163    0.9839 C.ar    1  LIG1       -0.0614
     18 C          -2.9965   -3.4421   -0.2459 C.ar    1  LIG1       -0.0614
     19 C          -2.9025    1.1323    2.6786 C.ar    1  LIG1       -0.0614
     20 C          -0.6191   -3.7729   -0.0982 C.ar    1  LIG1       -0.0614
     21 C          -3.5984    2.2793    2.3044 C.ar    1  LIG1       -0.0617
     22 C          -1.9092   -4.2914   -0.0728 C.ar    1  LIG1       -0.0617
     23 C           2.1960    0.1659    0.4612 C.ar    1  LIG1        0.3191
     24 C           4.1594   -0.2333    1.5651 C.ar    1  LIG1        0.0453
     25 C           4.1186   -0.0322   -0.7737 C.ar    1  LIG1        0.0453
     26 C           4.8598   -0.2219    0.3734 C.ar    1  LIG1       -0.0193
     27 C           4.8804   -0.4640    2.8583 C.3     1  LIG1       -0.0221
     28 C           4.7721   -0.0198   -2.1199 C.3     1  LIG1       -0.0221
     29 H           0.6576   -0.0318   -1.5270 H       1  LIG1        0.0834
     30 H          -2.7682    2.3729   -0.9873 H       1  LIG1        0.0621
     31 H          -3.6513   -1.4217   -0.5749 H       1  LIG1        0.0621
     32 H          -1.6028   -0.4552    2.0537 H       1  LIG1        0.0621
     33 H           0.6150   -2.0543   -0.3240 H       1  LIG1        0.0621
     34 H          -2.0974   -0.0475   -3.9653 H       1  LIG1        0.0524
     35 H          -1.3002   -1.3494   -3.0803 H       1  LIG1        0.0524
     36 H          -0.4696    0.2096   -3.3493 H       1  LIG1        0.0524
     37 H          -4.0540    3.6310    0.6881 H       1  LIG1        0.0618
     38 H          -4.0098   -3.8372   -0.2369 H       1  LIG1        0.0618
     39 H          -2.9123    0.8014    3.7125 H       1  LIG1        0.0618
     40 H           0.2358   -4.4281    0.0317 H       1  LIG1        0.0618
     41 H          -4.1522    2.8475    3.0440 H       1  LIG1        0.0618
     42 H          -2.0653   -5.3551    0.0769 H       1  LIG1        0.0618
     43 H           5.9319   -0.3599    0.3401 H       1  LIG1        0.0653
     44 H           4.1878   -0.4228    3.7052 H       1  LIG1        0.0293
     45 H           5.6474    0.3023    3.0072 H       1  LIG1        0.0293
     46 H           5.3543   -1.4505    2.8540 H       1  LIG1        0.0293
     47 H           4.0375    0.1748   -2.9089 H       1  LIG1        0.0293
     48 H           5.2381   -0.9897   -2.3226 H       1  LIG1        0.0293
     49 H           5.5351    0.7637   -2.1665 H       1  LIG1        0.0293
@<TRIPOS>BOND
     1     1     7    1
     2     1    16    1
     3     2     8    1
     4     2    23    1
     5     3    15   ar
     6     4    15   ar
     7     5    23   ar
     8     5    24   ar
     9     6    23   ar
    10     6    25   ar
    11     7     8    1
    12     7     9    1
    13     7    10    1
    14     8    15    1
    15     9    11   ar
    16     9    13   ar
    17    10    12   ar
    18    10    14   ar
    19    11    17   ar
    20    12    18   ar
    21    13    19   ar
    22    14    20   ar
    23    17    21   ar
    24    18    22   ar
    25    19    21   ar
    26    20    22   ar
    27    24    26   ar
    28    24    27    1
    29    25    26   ar
    30    25    28    1
    31     8    29    1
    32    11    30    1
    33    12    31    1
    34    13    32    1
    35    14    33    1
    36    16    34    1
    37    16    35    1
    38    16    36    1
    39    17    37    1
    40    18    38    1
    41    19    39    1
    42    20    40    1
    43    21    41    1
    44    22    42    1
    45    26    43    1
    46    27    44    1
    47    27    45    1
    48    27    46    1
    49    28    47    1
    50    28    48    1
    51    28    49    1
@<TRIPOS>MOLECULE
6918493
 49 51 0 0 0
SMALL
GASTEIGER

@<TRIPOS>ATOM
      1 O          -2.0422    0.2370   -1.9723 O.3     1  LIG1       -0.3632
      2 O           0.8280    0.0998    0.4970 O.3     1  LIG1       -0.4495
      3 O           0.5980    2.7236   -0.0640 O.co2   1  LIG1       -0.5459
      4 O           0.2525    2.2994   -2.2695 O.co2   1  LIG1       -0.5459
      5 N           2.8161    0.0556   -0.7596 N.ar    1  LIG1       -0.2002
      6 N           2.8186   -0.0845    1.6160 N.ar    1  LIG1       -0.2002
      7 C          -1.3284    0.0018   -0.7199 C.3     1  LIG1        0.1609
      8 C           0.1718    0.4513   -0.7564 C.3     1  LIG1        0.1791
      9 C          -2.1007    0.8057    0.3676 C.ar    1  LIG1       -0.0075
     10 C          -1.5389   -1.5368   -0.4816 C.ar    1  LIG1       -0.0075
     11 C          -2.8572    1.9422    0.0256 C.ar    1  LIG1       -0.0554
     12 C          -0.4846   -2.4612   -0.3812 C.ar    1  LIG1       -0.0554
     13 C          -2.0476    0.4416    1.7268 C.ar    1  LIG1       -0.0554
     14 C          -2.8538   -2.0482   -0.4059 C.ar    1  LIG1       -0.0554
     15 C           0.3347    1.9688   -1.0457 C.2     1  LIG1        0.0856
     16 C          -1.4422   -0.2576   -3.1596 C.3     1  LIG1        0.0382
     17 C          -3.5613    2.6617    0.9944 C.ar    1  LIG1       -0.0614
     18 C          -0.7300   -3.8238   -0.1789 C.ar    1  LIG1       -0.0614
     19 C          -2.7570    1.1577    2.6950 C.ar    1  LIG1       -0.0614
     20 C          -3.0994   -3.4091   -0.2081 C.ar    1  LIG1       -0.0614
     21 C          -3.5182    2.2642    2.3278 C.ar    1  LIG1       -0.0617
     22 C          -2.0350   -4.2970   -0.0892 C.ar    1  LIG1       -0.0617
     23 C           2.2034    0.0918    0.4346 C.ar    1  LIG1        0.3191
     24 C           4.1562   -0.0311   -0.7566 C.ar    1  LIG1        0.0453
     25 C           4.1600   -0.1845    1.5871 C.ar    1  LIG1        0.0453
     26 C           4.8825   -0.1580    0.4096 C.ar    1  LIG1       -0.0193
     27 C           4.8433   -0.0036   -2.0865 C.3     1  LIG1       -0.0221
     28 C           4.8622   -0.3467    2.9001 C.3     1  LIG1       -0.0221
     29 H           0.6544   -0.0922   -1.5785 H       1  LIG1        0.0834
     30 H          -2.8740    2.2909   -1.0062 H       1  LIG1        0.0621
     31 H           0.5513   -2.1461   -0.4597 H       1  LIG1        0.0621
     32 H          -1.4359   -0.4014    2.0408 H       1  LIG1        0.0621
     33 H          -3.6972   -1.3661   -0.5060 H       1  LIG1        0.0621
     34 H          -2.1466   -0.0893   -3.9797 H       1  LIG1        0.0524
     35 H          -1.2517   -1.3324   -3.1035 H       1  LIG1        0.0524
     36 H          -0.5215    0.2692   -3.4109 H       1  LIG1        0.0524
     37 H          -4.1197    3.5456    0.7022 H       1  LIG1        0.0618
     38 H           0.1077   -4.5103   -0.0922 H       1  LIG1        0.0618
     39 H          -2.6935    0.8597    3.7368 H       1  LIG1        0.0618
     40 H          -4.1224   -3.7677   -0.1484 H       1  LIG1        0.0618
     41 H          -4.0526    2.8332    3.0813 H       1  LIG1        0.0618
     42 H          -2.2217   -5.3545    0.0682 H       1  LIG1        0.0618
     43 H           5.9611   -0.2347    0.4012 H       1  LIG1        0.0653
     44 H           4.1241    0.1664   -2.8945 H       1  LIG1        0.0293
     45 H           5.3444   -0.9588   -2.2715 H       1  LIG1        0.0293
     46 H           5.5830    0.8024   -2.1163 H       1  LIG1        0.0293
     47 H           4.1524   -0.2974    3.7322 H       1  LIG1        0.0293
     48 H           5.6019    0.4483    3.0367 H       1  LIG1        0.0293
     49 H           5.3667   -1.3173    2.9395 H       1  LIG1        0.0293
@<TRIPOS>BOND
     1     1     7    1
     2     1    16    1
     3     2     8    1
     4     2    23    1
     5     3    15   ar
     6     4    15   ar
     7     5    23   ar
     8     5    24   ar
     9     6    23   ar
    10     6    25   ar
    11     7     8    1
    12     7     9    1
    13     7    10    1
    14     8    15    1
    15     9    11   ar
    16     9    13   ar
    17    10    12   ar
    18    10    14   ar
    19    11    17   ar
    20    12    18   ar
    21    13    19   ar
    22    14    20   ar
    23    17    21   ar
    24    18    22   ar
    25    19    21   ar
    26    20    22   ar
    27    24    26   ar
    28    24    27    1
    29    25    26   ar
    30    25    28    1
    31     8    29    1
    32    11    30    1
    33    12    31    1
    34    13    32    1
    35    14    33    1
    36    16    34    1
    37    16    35    1
    38    16    36    1
    39    17    37    1
    40    18    38    1
    41    19    39    1
    42    20    40    1
    43    21    41    1
    44    22    42    1
    45    26    43    1
    46    27    44    1
    47    27    45    1
    48    27    46    1
    49    28    47    1
    50    28    48    1
    51    28    49    1
@<TRIPOS>MOLECULE
6918493
 49 51 0 0 0
SMALL
GASTEIGER

@<TRIPOS>ATOM
      1 O          -2.0104    0.2244   -1.9716 O.3     1  LIG1       -0.3632
      2 O           0.7991    0.4195    0.5637 O.3     1  LIG1       -0.4495
      3 O           0.1466    2.9885   -0.2062 O.co2   1  LIG1       -0.5459
      4 O           0.2809    2.3447   -2.3819 O.co2   1  LIG1       -0.5459
      5 N           2.6033    1.1273    1.7917 N.ar    1  LIG1       -0.2002
      6 N           2.8450    0.7082   -0.5428 N.ar    1  LIG1       -0.2002
      7 C          -1.3193    0.0762   -0.6929 C.3     1  LIG1        0.1609
      8 C           0.1478    0.6292   -0.7250 C.3     1  LIG1        0.1791
      9 C          -2.1734    0.8426    0.3630 C.ar    1  LIG1       -0.0075
     10 C          -1.4331   -1.4611   -0.3994 C.ar    1  LIG1       -0.0075
     11 C          -1.9960    0.6177    1.7423 C.ar    1  LIG1       -0.0554
     12 C          -2.7148   -2.0560   -0.3510 C.ar    1  LIG1       -0.0554
     13 C          -3.1420    1.7873   -0.0234 C.ar    1  LIG1       -0.0554
     14 C          -0.3240   -2.3049   -0.2226 C.ar    1  LIG1       -0.0554
     15 C           0.1691    2.1293   -1.1343 C.2     1  LIG1        0.0856
     16 C          -1.3684   -0.3091   -3.1201 C.3     1  LIG1        0.0382
     17 C          -2.7654    1.2949    2.6921 C.ar    1  LIG1       -0.0614
     18 C          -2.8791   -3.4231   -0.1198 C.ar    1  LIG1       -0.0614
     19 C          -3.9152    2.4606    0.9263 C.ar    1  LIG1       -0.0614
     20 C          -0.4891   -3.6752    0.0100 C.ar    1  LIG1       -0.0614
     21 C          -3.7291    2.2123    2.2834 C.ar    1  LIG1       -0.0617
     22 C          -1.7639   -4.2332    0.0627 C.ar    1  LIG1       -0.0617
     23 C           2.1175    0.8115    0.5805 C.ar    1  LIG1        0.3191
     24 C           3.8846    1.5325    1.8319 C.ar    1  LIG1        0.0453
     25 C           4.1206    1.1240   -0.4721 C.ar    1  LIG1        0.0453
     26 C           4.6907    1.5581    0.7099 C.ar    1  LIG1       -0.0193
     27 C           4.4158    1.9890    3.1557 C.3     1  LIG1       -0.0221
     28 C           4.9120    1.1247   -1.7425 C.3     1  LIG1       -0.0221
     29 H           0.7096    0.0668   -1.4825 H       1  LIG1        0.0834
     30 H          -1.2345   -0.0787    2.0869 H       1  LIG1        0.0621
     31 H          -3.5969   -1.4350   -0.5033 H       1  LIG1        0.0621
     32 H          -3.2796    2.0248   -1.0763 H       1  LIG1        0.0621
     33 H           0.6903   -1.9179   -0.2647 H       1  LIG1        0.0621
     34 H          -2.0390   -0.1596   -3.9716 H       1  LIG1        0.0524
     35 H          -1.1933   -1.3839   -3.0247 H       1  LIG1        0.0524
     36 H          -0.4321    0.1983   -3.3518 H       1  LIG1        0.0524
     37 H          -2.5910    1.1173    3.7488 H       1  LIG1        0.0618
     38 H          -3.8783   -3.8468   -0.0860 H       1  LIG1        0.0618
     39 H          -4.6419    3.1971    0.5988 H       1  LIG1        0.0618
     40 H           0.3865   -4.3033    0.1484 H       1  LIG1        0.0618
     41 H          -4.3137    2.7526    3.0205 H       1  LIG1        0.0618
     42 H          -1.8865   -5.2967    0.2428 H       1  LIG1        0.0618
     43 H           5.7135    1.9066    0.7519 H       1  LIG1        0.0653
     44 H           3.6572    1.8856    3.9383 H       1  LIG1        0.0293
     45 H           4.7080    3.0425    3.1023 H       1  LIG1        0.0293
     46 H           5.2848    1.3891    3.4432 H       1  LIG1        0.0293
     47 H           4.3176    0.7306   -2.5733 H       1  LIG1        0.0293
     48 H           5.8029    0.4984   -1.6348 H       1  LIG1        0.0293
     49 H           5.2181    2.1444   -1.9964 H       1  LIG1        0.0293
@<TRIPOS>BOND
     1     1     7    1
     2     1    16    1
     3     2     8    1
     4     2    23    1
     5     3    15   ar
     6     4    15   ar
     7     5    23   ar
     8     5    24   ar
     9     6    23   ar
    10     6    25   ar
    11     7     8    1
    12     7     9    1
    13     7    10    1
    14     8    15    1
    15     9    11   ar
    16     9    13   ar
    17    10    12   ar
    18    10    14   ar
    19    11    17   ar
    20    12    18   ar
    21    13    19   ar
    22    14    20   ar
    23    17    21   ar
    24    18    22   ar
    25    19    21   ar
    26    20    22   ar
    27    24    26   ar
    28    24    27    1
    29    25    26   ar
    30    25    28    1
    31     8    29    1
    32    11    30    1
    33    12    31    1
    34    13    32    1
    35    14    33    1
    36    16    34    1
    37    16    35    1
    38    16    36    1
    39    17    37    1
    40    18    38    1
    41    19    39    1
    42    20    40    1
    43    21    41    1
    44    22    42    1
    45    26    43    1
    46    27    44    1
    47    27    45    1
    48    27    46    1
    49    28    47    1
    50    28    48    1
    51    28    49    1
@<TRIPOS>MOLECULE
6918493
 49 51 0 0 0
SMALL
GASTEIGER

@<TRIPOS>ATOM
      1 O          -2.0440    0.1888   -1.9760 O.3     1  LIG1       -0.3632
      2 O           0.8394    0.1320    0.4806 O.3     1  LIG1       -0.4495
      3 O           0.5293    2.7499   -0.0754 O.co2   1  LIG1       -0.5459
      4 O           0.2249    2.3093   -2.2852 O.co2   1  LIG1       -0.5459
      5 N           2.8174    0.0894   -0.7921 N.ar    1  LIG1       -0.2002
      6 N           2.8364   -0.0480    1.5836 N.ar    1  LIG1       -0.2002
      7 C          -1.3321    0.0002   -0.7145 C.3     1  LIG1        0.1609
      8 C           0.1634    0.4681   -0.7655 C.3     1  LIG1        0.1791
      9 C          -2.1221    0.8083    0.3585 C.ar    1  LIG1       -0.0075
     10 C          -1.5234   -1.5339   -0.4356 C.ar    1  LIG1       -0.0075
     11 C          -3.0526    1.7983   -0.0091 C.ar    1  LIG1       -0.0554
     12 C          -2.8315   -2.0535   -0.3112 C.ar    1  LIG1       -0.0554
     13 C          -1.9304    0.5725    1.7337 C.ar    1  LIG1       -0.0554
     14 C          -0.4597   -2.4485   -0.3515 C.ar    1  LIG1       -0.0554
     15 C           0.2948    1.9856   -1.0592 C.2     1  LIG1        0.0856
     16 C          -1.4228   -0.3088   -3.1507 C.3     1  LIG1        0.0382
     17 C          -3.7824    2.5000    0.9543 C.ar    1  LIG1       -0.0614
     18 C          -3.0607   -3.4123   -0.0811 C.ar    1  LIG1       -0.0614
     19 C          -2.6562    1.2779    2.6971 C.ar    1  LIG1       -0.0614
     20 C          -0.6881   -3.8087   -0.1170 C.ar    1  LIG1       -0.0614
     21 C          -3.5874    2.2364    2.3074 C.ar    1  LIG1       -0.0617
     22 C          -1.9868   -4.2898    0.0213 C.ar    1  LIG1       -0.0617
     23 C           2.2133    0.1277    0.4061 C.ar    1  LIG1        0.3191
     24 C           4.1573   -0.0046   -0.7973 C.ar    1  LIG1        0.0453
     25 C           4.1769   -0.1548    1.5464 C.ar    1  LIG1        0.0453
     26 C           4.8912   -0.1336    0.3642 C.ar    1  LIG1       -0.0193
     27 C           4.8368    0.0151   -2.1315 C.3     1  LIG1       -0.0221
     28 C           4.8862   -0.3204    2.8550 C.3     1  LIG1       -0.0221
     29 H           0.6473   -0.0702   -1.5900 H       1  LIG1        0.0834
     30 H          -3.1992    2.0439   -1.0594 H       1  LIG1        0.0621
     31 H          -3.6841   -1.3812   -0.4000 H       1  LIG1        0.0621
     32 H          -1.1957   -0.1591    2.0626 H       1  LIG1        0.0621
     33 H           0.5706   -2.1274   -0.4700 H       1  LIG1        0.0621
     34 H          -2.1412   -0.2120   -3.9703 H       1  LIG1        0.0524
     35 H          -1.1640   -1.3669   -3.0610 H       1  LIG1        0.0524
     36 H          -0.5398    0.2681   -3.4265 H       1  LIG1        0.0524
     37 H          -4.4849    3.2662    0.6406 H       1  LIG1        0.0618
     38 H          -4.0787   -3.7769    0.0161 H       1  LIG1        0.0618
     39 H          -2.4752    1.0874    3.7501 H       1  LIG1        0.0618
     40 H           0.1567   -4.4880   -0.0447 H       1  LIG1        0.0618
     41 H          -4.1402    2.7951    3.0554 H       1  LIG1        0.0618
     42 H          -2.1600   -5.3459    0.2033 H       1  LIG1        0.0618
     43 H           5.9693   -0.2170    0.3484 H       1  LIG1        0.0653
     44 H           4.1138    0.1866   -2.9359 H       1  LIG1        0.0293
     45 H           5.3315   -0.9435   -2.3164 H       1  LIG1        0.0293
     46 H           5.5810    0.8168   -2.1681 H       1  LIG1        0.0293
     47 H           4.1817   -0.2677    3.6915 H       1  LIG1        0.0293
     48 H           5.6306    0.4709    2.9873 H       1  LIG1        0.0293
     49 H           5.3861   -1.2936    2.8917 H       1  LIG1        0.0293
@<TRIPOS>BOND
     1     1     7    1
     2     1    16    1
     3     2     8    1
     4     2    23    1
     5     3    15   ar
     6     4    15   ar
     7     5    23   ar
     8     5    24   ar
     9     6    23   ar
    10     6    25   ar
    11     7     8    1
    12     7     9    1
    13     7    10    1
    14     8    15    1
    15     9    11   ar
    16     9    13   ar
    17    10    12   ar
    18    10    14   ar
    19    11    17   ar
    20    12    18   ar
    21    13    19   ar
    22    14    20   ar
    23    17    21   ar
    24    18    22   ar
    25    19    21   ar
    26    20    22   ar
    27    24    26   ar
    28    24    27    1
    29    25    26   ar
    30    25    28    1
    31     8    29    1
    32    11    30    1
    33    12    31    1
    34    13    32    1
    35    14    33    1
    36    16    34    1
    37    16    35    1
    38    16    36    1
    39    17    37    1
    40    18    38    1
    41    19    39    1
    42    20    40    1
    43    21    41    1
    44    22    42    1
    45    26    43    1
    46    27    44    1
    47    27    45    1
    48    27    46    1
    49    28    47    1
    50    28    48    1
    51    28    49    1
@<TRIPOS>MOLECULE
6918493
 49 51 0 0 0
SMALL
GASTEIGER

@<TRIPOS>ATOM
      1 O          -2.0434    0.2371   -1.9734 O.3     1  LIG1       -0.3632
      2 O           0.8253    0.1069    0.4980 O.3     1  LIG1       -0.4495
      3 O           0.5917    2.7296   -0.0639 O.co2   1  LIG1       -0.5459
      4 O           0.2444    2.3050   -2.2689 O.co2   1  LIG1       -0.5459
      5 N           2.8154   -0.0944    1.6147 N.ar    1  LIG1       -0.2002
      6 N           2.8138    0.0728   -0.7590 N.ar    1  LIG1       -0.2002
      7 C          -1.3304    0.0038   -0.7203 C.3     1  LIG1        0.1609
      8 C           0.1686    0.4569   -0.7558 C.3     1  LIG1        0.1791
      9 C          -2.1039    0.8071    0.3649 C.ar    1  LIG1       -0.0075
     10 C          -1.5376   -1.5353   -0.4827 C.ar    1  LIG1       -0.0075
     11 C          -2.8599    1.9439    0.0232 C.ar    1  LIG1       -0.0554
     12 C          -0.4812   -2.4571   -0.3793 C.ar    1  LIG1       -0.0554
     13 C          -2.0570    0.4401    1.7246 C.ar    1  LIG1       -0.0554
     14 C          -2.8510   -2.0502   -0.4100 C.ar    1  LIG1       -0.0554
     15 C           0.3291    1.9743   -1.0454 C.2     1  LIG1        0.0856
     16 C          -1.4417   -0.2567   -3.1602 C.3     1  LIG1        0.0382
     17 C          -3.5662    2.6619    0.9918 C.ar    1  LIG1       -0.0614
     18 C          -0.7236   -3.8200   -0.1764 C.ar    1  LIG1       -0.0614
     19 C          -2.7685    1.1547    2.6916 C.ar    1  LIG1       -0.0614
     20 C          -3.0939   -3.4116   -0.2124 C.ar    1  LIG1       -0.0614
     21 C          -3.5283    2.2630    2.3237 C.ar    1  LIG1       -0.0617
     22 C          -2.0278   -4.2966   -0.0904 C.ar    1  LIG1       -0.0617
     23 C           2.2006    0.0966    0.4355 C.ar    1  LIG1        0.3191
     24 C           4.1564   -0.1984    1.5851 C.ar    1  LIG1        0.0453
     25 C           4.1538   -0.0175   -0.7567 C.ar    1  LIG1        0.0453
     26 C           4.8794   -0.1602    0.4081 C.ar    1  LIG1       -0.0193
     27 C           4.8580   -0.3783    2.8962 C.3     1  LIG1       -0.0221
     28 C           4.8411    0.0238   -2.0862 C.3     1  LIG1       -0.0221
     29 H           0.6534   -0.0857   -1.5774 H       1  LIG1        0.0834
     30 H          -2.8726    2.2940   -1.0078 H       1  LIG1        0.0621
     31 H           0.5546   -2.1397   -0.4554 H       1  LIG1        0.0621
     32 H          -1.4460   -0.4045    2.0398 H       1  LIG1        0.0621
     33 H          -3.6965   -1.3696   -0.5128 H       1  LIG1        0.0621
     34 H          -2.1452   -0.0886   -3.9813 H       1  LIG1        0.0524
     35 H          -1.2508   -1.3314   -3.1041 H       1  LIG1        0.0524
     36 H          -0.5209    0.2704   -3.4102 H       1  LIG1        0.0524
     37 H          -4.1233    3.5468    0.6982 H       1  LIG1        0.0618
     38 H           0.1154   -4.5044   -0.0877 H       1  LIG1        0.0618
     39 H          -2.7089    0.8549    3.7337 H       1  LIG1        0.0618
     40 H          -4.1165   -3.7730   -0.1554 H       1  LIG1        0.0618
     41 H          -4.0650    2.8313    3.0781 H       1  LIG1        0.0618
     42 H          -2.2118   -5.3543    0.0671 H       1  LIG1        0.0618
     43 H           5.9575   -0.2400    0.3989 H       1  LIG1        0.0653
     44 H           4.1478   -0.3387    3.7283 H       1  LIG1        0.0293
     45 H           5.5984    0.4139    3.0430 H       1  LIG1        0.0293
     46 H           5.3609   -1.3499    2.9233 H       1  LIG1        0.0293
     47 H           4.1223    0.2045   -2.8922 H       1  LIG1        0.0293
     48 H           5.3405   -0.9299   -2.2819 H       1  LIG1        0.0293
     49 H           5.5822    0.8290   -2.1065 H       1  LIG1        0.0293
@<TRIPOS>BOND
     1     1     7    1
     2     1    16    1
     3     2     8    1
     4     2    23    1
     5     3    15   ar
     6     4    15   ar
     7     5    23   ar
     8     5    24   ar
     9     6    23   ar
    10     6    25   ar
    11     7     8    1
    12     7     9    1
    13     7    10    1
    14     8    15    1
    15     9    11   ar
    16     9    13   ar
    17    10    12   ar
    18    10    14   ar
    19    11    17   ar
    20    12    18   ar
    21    13    19   ar
    22    14    20   ar
    23    17    21   ar
    24    18    22   ar
    25    19    21   ar
    26    20    22   ar
    27    24    26   ar
    28    24    27    1
    29    25    26   ar
    30    25    28    1
    31     8    29    1
    32    11    30    1
    33    12    31    1
    34    13    32    1
    35    14    33    1
    36    16    34    1
    37    16    35    1
    38    16    36    1
    39    17    37    1
    40    18    38    1
    41    19    39    1
    42    20    40    1
    43    21    41    1
    44    22    42    1
    45    26    43    1
    46    27    44    1
    47    27    45    1
    48    27    46    1
    49    28    47    1
    50    28    48    1
    51    28    49    1
@<TRIPOS>MOLECULE
6918493
 49 51 0 0 0
SMALL
GASTEIGER

@<TRIPOS>ATOM
      1 O          -2.0157    0.2241   -1.9723 O.3     1  LIG1       -0.3632
      2 O           0.7933    0.4262    0.5624 O.3     1  LIG1       -0.4495
      3 O           0.1443    2.9942   -0.2052 O.co2   1  LIG1       -0.5459
      4 O           0.2646    2.3530   -2.3824 O.co2   1  LIG1       -0.5459
      5 N           2.8382    0.7210   -0.5459 N.ar    1  LIG1       -0.2002
      6 N           2.6020    1.1158    1.7936 N.ar    1  LIG1       -0.2002
      7 C          -1.3227    0.0782   -0.6945 C.3     1  LIG1        0.1609
      8 C           0.1426    0.6355   -0.7267 C.3     1  LIG1        0.1791
      9 C          -2.1777    0.8429    0.3615 C.ar    1  LIG1       -0.0075
     10 C          -1.4314   -1.4598   -0.4010 C.ar    1  LIG1       -0.0075
     11 C          -2.0081    0.6098    1.7407 C.ar    1  LIG1       -0.0554
     12 C          -2.7114   -2.0584   -0.3500 C.ar    1  LIG1       -0.0554
     13 C          -3.1380    1.7960   -0.0245 C.ar    1  LIG1       -0.0554
     14 C          -0.3194   -2.3001   -0.2256 C.ar    1  LIG1       -0.0554
     15 C           0.1612    2.1359   -1.1343 C.2     1  LIG1        0.0856
     16 C          -1.3724   -0.3063   -3.1216 C.3     1  LIG1        0.0382
     17 C          -2.7787    1.2856    2.6902 C.ar    1  LIG1       -0.0614
     18 C          -2.8712   -3.4256   -0.1167 C.ar    1  LIG1       -0.0614
     19 C          -3.9118    2.4689    0.9251 C.ar    1  LIG1       -0.0614
     20 C          -0.4799   -3.6703    0.0090 C.ar    1  LIG1       -0.0614
     21 C          -3.7346    2.2112    2.2818 C.ar    1  LIG1       -0.0617
     22 C          -1.7531   -4.2321    0.0649 C.ar    1  LIG1       -0.0617
     23 C           2.1127    0.8145    0.5801 C.ar    1  LIG1        0.3191
     24 C           4.1154    1.1318   -0.4717 C.ar    1  LIG1        0.0453
     25 C           3.8851    1.5151    1.8363 C.ar    1  LIG1        0.0453
     26 C           4.6892    1.5501    0.7130 C.ar    1  LIG1       -0.0193
     27 C           4.9040    1.1439   -1.7445 C.3     1  LIG1       -0.0221
     28 C           4.4206    1.9537    3.1642 C.3     1  LIG1       -0.0221
     29 H           0.7058    0.0753   -1.4847 H       1  LIG1        0.0834
     30 H          -1.2520   -0.0927    2.0847 H       1  LIG1        0.0621
     31 H          -3.5956   -1.4401   -0.5012 H       1  LIG1        0.0621
     32 H          -3.2680    2.0409   -1.0767 H       1  LIG1        0.0621
     33 H           0.6937   -1.9102   -0.2701 H       1  LIG1        0.0621
     34 H          -2.0450   -0.1605   -3.9722 H       1  LIG1        0.0524
     35 H          -1.1913   -1.3800   -3.0262 H       1  LIG1        0.0524
     36 H          -0.4393    0.2062   -3.3545 H       1  LIG1        0.0524
     37 H          -2.6112    1.1008    3.7465 H       1  LIG1        0.0618
     38 H          -3.8689   -3.8523   -0.0801 H       1  LIG1        0.0618
     39 H          -4.6319    3.2124    0.5981 H       1  LIG1        0.0618
     40 H           0.3980   -4.2953    0.1466 H       1  LIG1        0.0618
     41 H          -4.3199    2.7508    3.0189 H       1  LIG1        0.0618
     42 H          -1.8720   -5.2955    0.2471 H       1  LIG1        0.0618
     43 H           5.7136    1.8938    0.7572 H       1  LIG1        0.0653
     44 H           4.3072    0.7596   -2.5781 H       1  LIG1        0.0293
     45 H           5.7939    0.5145   -1.6451 H       1  LIG1        0.0293
     46 H           5.2119    2.1655   -1.9884 H       1  LIG1        0.0293
     47 H           3.6637    1.8424    3.9474 H       1  LIG1        0.0293
     48 H           4.7153    3.0070    3.1232 H       1  LIG1        0.0293
     49 H           5.2888    1.3481    3.4420 H       1  LIG1        0.0293
@<TRIPOS>BOND
     1     1     7    1
     2     1    16    1
     3     2     8    1
     4     2    23    1
     5     3    15   ar
     6     4    15   ar
     7     5    23   ar
     8     5    24   ar
     9     6    23   ar
    10     6    25   ar
    11     7     8    1
    12     7     9    1
    13     7    10    1
    14     8    15    1
    15     9    11   ar
    16     9    13   ar
    17    10    12   ar
    18    10    14   ar
    19    11    17   ar
    20    12    18   ar
    21    13    19   ar
    22    14    20   ar
    23    17    21   ar
    24    18    22   ar
    25    19    21   ar
    26    20    22   ar
    27    24    26   ar
    28    24    27    1
    29    25    26   ar
    30    25    28    1
    31     8    29    1
    32    11    30    1
    33    12    31    1
    34    13    32    1
    35    14    33    1
    36    16    34    1
    37    16    35    1
    38    16    36    1
    39    17    37    1
    40    18    38    1
    41    19    39    1
    42    20    40    1
    43    21    41    1
    44    22    42    1
    45    26    43    1
    46    27    44    1
    47    27    45    1
    48    27    46    1
    49    28    47    1
    50    28    48    1
    51    28    49    1
@<TRIPOS>MOLECULE
6918493
 49 51 0 0 0
SMALL
GASTEIGER

@<TRIPOS>ATOM
      1 O          -2.0415    0.1885   -1.9760 O.3     1  LIG1       -0.3632
      2 O           0.8404    0.1286    0.4823 O.3     1  LIG1       -0.4495
      3 O           0.5291    2.7467   -0.0695 O.co2   1  LIG1       -0.5459
      4 O           0.2255    2.3107   -2.2796 O.co2   1  LIG1       -0.5459
      5 N           2.8369   -0.0641    1.5842 N.ar    1  LIG1       -0.2002
      6 N           2.8196    0.0988   -0.7897 N.ar    1  LIG1       -0.2002
      7 C          -1.3306   -0.0011   -0.7138 C.3     1  LIG1        0.1609
      8 C           0.1650    0.4666   -0.7634 C.3     1  LIG1        0.1791
      9 C          -2.1222    0.8059    0.3593 C.ar    1  LIG1       -0.0075
     10 C          -1.5228   -1.5353   -0.4362 C.ar    1  LIG1       -0.0075
     11 C          -3.0555    1.7935   -0.0085 C.ar    1  LIG1       -0.0554
     12 C          -2.8312   -2.0549   -0.3140 C.ar    1  LIG1       -0.0554
     13 C          -1.9292    0.5710    1.7343 C.ar    1  LIG1       -0.0554
     14 C          -0.4591   -2.4504   -0.3517 C.ar    1  LIG1       -0.0554
     15 C           0.2956    1.9854   -1.0538 C.2     1  LIG1        0.0856
     16 C          -1.4184   -0.3075   -3.1506 C.3     1  LIG1        0.0382
     17 C          -3.7868    2.4936    0.9551 C.ar    1  LIG1       -0.0614
     18 C          -3.0608   -3.4136   -0.0849 C.ar    1  LIG1       -0.0614
     19 C          -2.6564    1.2750    2.6977 C.ar    1  LIG1       -0.0614
     20 C          -0.6883   -3.8107   -0.1187 C.ar    1  LIG1       -0.0614
     21 C          -3.5900    2.2311    2.3080 C.ar    1  LIG1       -0.0617
     22 C          -1.9870   -4.2914    0.0177 C.ar    1  LIG1       -0.0617
     23 C           2.2145    0.1241    0.4083 C.ar    1  LIG1        0.3191
     24 C           4.1774   -0.1709    1.5467 C.ar    1  LIG1        0.0453
     25 C           4.1598    0.0059   -0.7954 C.ar    1  LIG1        0.0453
     26 C           4.8922   -0.1363    0.3651 C.ar    1  LIG1       -0.0193
     27 C           4.8860   -0.3512    2.8538 C.3     1  LIG1       -0.0221
     28 C           4.8396    0.0415   -2.1288 C.3     1  LIG1       -0.0221
     29 H           0.6492   -0.0701   -1.5884 H       1  LIG1        0.0834
     30 H          -3.2034    2.0378   -1.0588 H       1  LIG1        0.0621
     31 H          -3.6833   -1.3821   -0.4028 H       1  LIG1        0.0621
     32 H          -1.1927   -0.1585    2.0633 H       1  LIG1        0.0621
     33 H           0.5714   -2.1291   -0.4687 H       1  LIG1        0.0621
     34 H          -2.1362   -0.2110   -3.9706 H       1  LIG1        0.0524
     35 H          -1.1583   -1.3653   -3.0613 H       1  LIG1        0.0524
     36 H          -0.5360    0.2708   -3.4251 H       1  LIG1        0.0524
     37 H          -4.4913    3.2576    0.6411 H       1  LIG1        0.0618
     38 H          -4.0790   -3.7780    0.0107 H       1  LIG1        0.0618
     39 H          -2.4744    1.0858    3.7508 H       1  LIG1        0.0618
     40 H           0.1563   -4.4900   -0.0458 H       1  LIG1        0.0618
     41 H          -4.1440    2.7890    3.0559 H       1  LIG1        0.0618
     42 H          -2.1607   -5.3474    0.1986 H       1  LIG1        0.0618
     43 H           5.9705   -0.2193    0.3492 H       1  LIG1        0.0653
     44 H           4.1808   -0.3094    3.6902 H       1  LIG1        0.0293
     45 H           5.6293    0.4393    2.9960 H       1  LIG1        0.0293
     46 H           5.3869   -1.3242    2.8791 H       1  LIG1        0.0293
     47 H           4.1169    0.2213   -2.9315 H       1  LIG1        0.0293
     48 H           5.3356   -0.9145   -2.3242 H       1  LIG1        0.0293
     49 H           5.5828    0.8444   -2.1556 H       1  LIG1        0.0293
@<TRIPOS>BOND
     1     1     7    1
     2     1    16    1
     3     2     8    1
     4     2    23    1
     5     3    15   ar
     6     4    15   ar
     7     5    23   ar
     8     5    24   ar
     9     6    23   ar
    10     6    25   ar
    11     7     8    1
    12     7     9    1
    13     7    10    1
    14     8    15    1
    15     9    11   ar
    16     9    13   ar
    17    10    12   ar
    18    10    14   ar
    19    11    17   ar
    20    12    18   ar
    21    13    19   ar
    22    14    20   ar
    23    17    21   ar
    24    18    22   ar
    25    19    21   ar
    26    20    22   ar
    27    24    26   ar
    28    24    27    1
    29    25    26   ar
    30    25    28    1
    31     8    29    1
    32    11    30    1
    33    12    31    1
    34    13    32    1
    35    14    33    1
    36    16    34    1
    37    16    35    1
    38    16    36    1
    39    17    37    1
    40    18    38    1
    41    19    39    1
    42    20    40    1
    43    21    41    1
    44    22    42    1
    45    26    43    1
    46    27    44    1
    47    27    45    1
    48    27    46    1
    49    28    47    1
    50    28    48    1
    51    28    49    1
@<TRIPOS>MOLECULE
6918493
 49 51 0 0 0
SMALL
GASTEIGER

@<TRIPOS>ATOM
      1 O          -1.9855    0.2326   -1.9663 O.3     1  LIG1       -0.3632
      2 O           0.8259    0.3759    0.5730 O.3     1  LIG1       -0.4495
      3 O           0.1705    2.9570   -0.1730 O.co2   1  LIG1       -0.5459
      4 O           0.3153    2.3286   -2.3525 O.co2   1  LIG1       -0.5459
      5 N           2.6171    1.1193    1.8001 N.ar    1  LIG1       -0.2002
      6 N           2.8680    0.6894   -0.5324 N.ar    1  LIG1       -0.2002
      7 C          -1.3074    0.0659   -0.6815 C.3     1  LIG1        0.1609
      8 C           0.1679    0.6022   -0.7094 C.3     1  LIG1        0.1791
      9 C          -2.1603    0.8334    0.3752 C.ar    1  LIG1       -0.0075
     10 C          -1.4434   -1.4701   -0.3987 C.ar    1  LIG1       -0.0075
     11 C          -1.9223    0.6764    1.7545 C.ar    1  LIG1       -0.0554
     12 C          -0.3474   -2.3294   -0.2149 C.ar    1  LIG1       -0.0554
     13 C          -3.1926    1.7104   -0.0095 C.ar    1  LIG1       -0.0554
     14 C          -2.7323   -2.0519   -0.3831 C.ar    1  LIG1       -0.0554
     15 C           0.1951    2.1054   -1.1073 C.2     1  LIG1        0.0856
     16 C          -1.3483   -0.3114   -3.1128 C.3     1  LIG1        0.0382
     17 C          -2.6781    1.3683    2.7050 C.ar    1  LIG1       -0.0614
     18 C          -0.5313   -3.7021   -0.0127 C.ar    1  LIG1       -0.0614
     19 C          -3.9572    2.3927    0.9421 C.ar    1  LIG1       -0.0614
     20 C          -2.9156   -3.4224   -0.1847 C.ar    1  LIG1       -0.0614
     21 C          -3.6984    2.2233    2.2984 C.ar    1  LIG1       -0.0617
     22 C          -1.8123   -4.2481    0.0012 C.ar    1  LIG1       -0.0617
     23 C           2.1388    0.7861    0.5909 C.ar    1  LIG1        0.3191
     24 C           3.8882    1.5558    1.8365 C.ar    1  LIG1        0.0453
     25 C           4.1331    1.1365   -0.4641 C.ar    1  LIG1        0.0453
     26 C           4.6933    1.5912    0.7137 C.ar    1  LIG1       -0.0193
     27 C           4.4090    2.0350    3.1564 C.3     1  LIG1       -0.0221
     28 C           4.9235    1.1455   -1.7357 C.3     1  LIG1       -0.0221
     29 H           0.7237    0.0402   -1.4710 H       1  LIG1        0.0834
     30 H          -1.1206    0.0279    2.0989 H       1  LIG1        0.0621
     31 H           0.6719   -1.9531   -0.2316 H       1  LIG1        0.0621
     32 H          -3.3914    1.8892   -1.0646 H       1  LIG1        0.0621
     33 H          -3.6047   -1.4198   -0.5428 H       1  LIG1        0.0621
     34 H          -1.9986   -0.1213   -3.9718 H       1  LIG1        0.0524
     35 H          -1.2226   -1.3941   -3.0298 H       1  LIG1        0.0524
     36 H          -0.3874    0.1573   -3.3241 H       1  LIG1        0.0524
     37 H          -2.4472    1.2527    3.7595 H       1  LIG1        0.0618
     38 H           0.3347   -4.3426    0.1289 H       1  LIG1        0.0618
     39 H          -4.7335    3.0762    0.6136 H       1  LIG1        0.0618
     40 H          -3.9191   -3.8359   -0.1825 H       1  LIG1        0.0618
     41 H          -4.2715    2.7753    3.0355 H       1  LIG1        0.0618
     42 H          -1.9495   -5.3137    0.1531 H       1  LIG1        0.0618
     43 H           5.7075    1.9643    0.7528 H       1  LIG1        0.0653
     44 H           3.6435    1.9472    3.9342 H       1  LIG1        0.0293
     45 H           4.7032    3.0871    3.0872 H       1  LIG1        0.0293
     46 H           5.2747    1.4390    3.4613 H       1  LIG1        0.0293
     47 H           4.3265    0.7633   -2.5700 H       1  LIG1        0.0293
     48 H           5.8110    0.5132   -1.6341 H       1  LIG1        0.0293
     49 H           5.2351    2.1658   -1.9803 H       1  LIG1        0.0293
@<TRIPOS>BOND
     1     1     7    1
     2     1    16    1
     3     2     8    1
     4     2    23    1
     5     3    15   ar
     6     4    15   ar
     7     5    23   ar
     8     5    24   ar
     9     6    23   ar
    10     6    25   ar
    11     7     8    1
    12     7     9    1
    13     7    10    1
    14     8    15    1
    15     9    11   ar
    16     9    13   ar
    17    10    12   ar
    18    10    14   ar
    19    11    17   ar
    20    12    18   ar
    21    13    19   ar
    22    14    20   ar
    23    17    21   ar
    24    18    22   ar
    25    19    21   ar
    26    20    22   ar
    27    24    26   ar
    28    24    27    1
    29    25    26   ar
    30    25    28    1
    31     8    29    1
    32    11    30    1
    33    12    31    1
    34    13    32    1
    35    14    33    1
    36    16    34    1
    37    16    35    1
    38    16    36    1
    39    17    37    1
    40    18    38    1
    41    19    39    1
    42    20    40    1
    43    21    41    1
    44    22    42    1
    45    26    43    1
    46    27    44    1
    47    27    45    1
    48    27    46    1
    49    28    47    1
    50    28    48    1
    51    28    49    1
@<TRIPOS>MOLECULE
6918493
 49 51 0 0 0
SMALL
GASTEIGER

@<TRIPOS>ATOM
      1 O          -2.0118    0.2242   -1.9721 O.3     1  LIG1       -0.3632
      2 O           0.7955    0.4268    0.5650 O.3     1  LIG1       -0.4495
      3 O           0.1444    2.9940   -0.2041 O.co2   1  LIG1       -0.5459
      4 O           0.2693    2.3522   -2.3806 O.co2   1  LIG1       -0.5459
      5 N           2.8407    0.7217   -0.5424 N.ar    1  LIG1       -0.2002
      6 N           2.6030    1.1180    1.7965 N.ar    1  LIG1       -0.2002
      7 C          -1.3199    0.0777   -0.6935 C.3     1  LIG1        0.1609
      8 C           0.1455    0.6353   -0.7246 C.3     1  LIG1        0.1791
      9 C          -2.1761    0.8420    0.3621 C.ar    1  LIG1       -0.0075
     10 C          -1.4289   -1.4600   -0.4005 C.ar    1  LIG1       -0.0075
     11 C          -2.0067    0.6088    1.7411 C.ar    1  LIG1       -0.0554
     12 C          -0.3174   -2.3001   -0.2213 C.ar    1  LIG1       -0.0554
     13 C          -3.1375    1.7939   -0.0242 C.ar    1  LIG1       -0.0554
     14 C          -2.7089   -2.0591   -0.3535 C.ar    1  LIG1       -0.0554
     15 C           0.1638    2.1356   -1.1327 C.2     1  LIG1        0.0856
     16 C          -1.3677   -0.3065   -3.1208 C.3     1  LIG1        0.0382
     17 C          -2.7784    1.2837    2.6903 C.ar    1  LIG1       -0.0614
     18 C          -0.4783   -3.6705    0.0131 C.ar    1  LIG1       -0.0614
     19 C          -3.9123    2.4659    0.9249 C.ar    1  LIG1       -0.0614
     20 C          -2.8691   -3.4263   -0.1205 C.ar    1  LIG1       -0.0614
     21 C          -3.7353    2.2084    2.2816 C.ar    1  LIG1       -0.0617
     22 C          -1.7513   -4.2326    0.0651 C.ar    1  LIG1       -0.0617
     23 C           2.1152    0.8159    0.5832 C.ar    1  LIG1        0.3191
     24 C           4.1183    1.1333   -0.4678 C.ar    1  LIG1        0.0453
     25 C           3.8865    1.5180    1.8396 C.ar    1  LIG1        0.0453
     26 C           4.6908    1.5523    0.7167 C.ar    1  LIG1       -0.0193
     27 C           4.9070    1.1443   -1.7403 C.3     1  LIG1       -0.0221
     28 C           4.4209    1.9575    3.1676 C.3     1  LIG1       -0.0221
     29 H           0.7092    0.0747   -1.4820 H       1  LIG1        0.0834
     30 H          -1.2503   -0.0931    2.0857 H       1  LIG1        0.0621
     31 H           0.6955   -1.9100   -0.2625 H       1  LIG1        0.0621
     32 H          -3.2671    2.0386   -1.0764 H       1  LIG1        0.0621
     33 H          -3.5929   -1.4410   -0.5076 H       1  LIG1        0.0621
     34 H          -2.0394   -0.1601   -3.9719 H       1  LIG1        0.0524
     35 H          -1.1874   -1.3802   -3.0254 H       1  LIG1        0.0524
     36 H          -0.4341    0.2055   -3.3528 H       1  LIG1        0.0524
     37 H          -2.6112    1.0989    3.7472 H       1  LIG1        0.0618
     38 H           0.3990   -4.2954    0.1540 H       1  LIG1        0.0618
     39 H          -4.6329    3.2082    0.5979 H       1  LIG1        0.0618
     40 H          -3.8669   -3.8534   -0.0871 H       1  LIG1        0.0618
     41 H          -4.3215    2.7474    3.0188 H       1  LIG1        0.0618
     42 H          -1.8707   -5.2962    0.2472 H       1  LIG1        0.0618
     43 H           5.7153    1.8965    0.7613 H       1  LIG1        0.0653
     44 H           4.3106    0.7596   -2.5740 H       1  LIG1        0.0293
     45 H           5.7969    0.5150   -1.6403 H       1  LIG1        0.0293
     46 H           5.2150    2.1658   -1.9848 H       1  LIG1        0.0293
     47 H           3.6636    1.8465    3.9504 H       1  LIG1        0.0293
     48 H           4.7155    3.0108    3.1261 H       1  LIG1        0.0293
     49 H           5.2889    1.3522    3.4463 H       1  LIG1        0.0293
@<TRIPOS>BOND
     1     1     7    1
     2     1    16    1
     3     2     8    1
     4     2    23    1
     5     3    15   ar
     6     4    15   ar
     7     5    23   ar
     8     5    24   ar
     9     6    23   ar
    10     6    25   ar
    11     7     8    1
    12     7     9    1
    13     7    10    1
    14     8    15    1
    15     9    11   ar
    16     9    13   ar
    17    10    12   ar
    18    10    14   ar
    19    11    17   ar
    20    12    18   ar
    21    13    19   ar
    22    14    20   ar
    23    17    21   ar
    24    18    22   ar
    25    19    21   ar
    26    20    22   ar
    27    24    26   ar
    28    24    27    1
    29    25    26   ar
    30    25    28    1
    31     8    29    1
    32    11    30    1
    33    12    31    1
    34    13    32    1
    35    14    33    1
    36    16    34    1
    37    16    35    1
    38    16    36    1
    39    17    37    1
    40    18    38    1
    41    19    39    1
    42    20    40    1
    43    21    41    1
    44    22    42    1
    45    26    43    1
    46    27    44    1
    47    27    45    1
    48    27    46    1
    49    28    47    1
    50    28    48    1
    51    28    49    1
@<TRIPOS>MOLECULE
6918493
 49 51 0 0 0
SMALL
GASTEIGER

@<TRIPOS>ATOM
      1 O          -2.0090    0.2830   -1.9749 O.3     1  LIG1       -0.3632
      2 O           0.7799    0.4214    0.5853 O.3     1  LIG1       -0.4495
      3 O           0.2059    2.9966   -0.2251 O.co2   1  LIG1       -0.5459
      4 O           0.3259    2.3265   -2.3929 O.co2   1  LIG1       -0.5459
      5 N           2.5819    1.1083    1.8309 N.ar    1  LIG1       -0.2002
      6 N           2.8422    0.6772   -0.4997 N.ar    1  LIG1       -0.2002
      7 C          -1.3164    0.0923   -0.7031 C.3     1  LIG1        0.1609
      8 C           0.1551    0.6308   -0.7182 C.3     1  LIG1        0.1791
      9 C          -2.1575    0.8547    0.3646 C.ar    1  LIG1       -0.0075
     10 C          -1.4420   -1.4509   -0.4461 C.ar    1  LIG1       -0.0075
     11 C          -2.9677    1.9469    0.0043 C.ar    1  LIG1       -0.0554
     12 C          -2.7261   -2.0426   -0.4417 C.ar    1  LIG1       -0.0554
     13 C          -2.1098    0.4993    1.7271 C.ar    1  LIG1       -0.0554
     14 C          -0.3402   -2.3005   -0.2505 C.ar    1  LIG1       -0.0554
     15 C           0.2112    2.1261   -1.1428 C.2     1  LIG1        0.0856
     16 C          -1.3905   -0.2551   -3.1345 C.3     1  LIG1        0.0382
     17 C          -3.7193    2.6364    0.9592 C.ar    1  LIG1       -0.0614
     18 C          -2.8996   -3.4127   -0.2363 C.ar    1  LIG1       -0.0614
     19 C          -2.8669    1.1842    2.6811 C.ar    1  LIG1       -0.0614
     20 C          -0.5146   -3.6735   -0.0434 C.ar    1  LIG1       -0.0614
     21 C          -3.6749    2.2504    2.2962 C.ar    1  LIG1       -0.0617
     22 C          -1.7915   -4.2287   -0.0350 C.ar    1  LIG1       -0.0617
     23 C           2.1049    0.7922    0.6171 C.ar    1  LIG1        0.3191
     24 C           3.8665    1.5032    1.8808 C.ar    1  LIG1        0.0453
     25 C           4.1198    1.0849   -0.4185 C.ar    1  LIG1        0.0453
     26 C           4.6822    1.5192    0.7650 C.ar    1  LIG1       -0.0193
     27 C           4.3892    1.9630    3.2064 C.3     1  LIG1       -0.0221
     28 C           4.9188    1.0790   -1.6849 C.3     1  LIG1       -0.0221
     29 H           0.7208    0.0548   -1.4627 H       1  LIG1        0.0834
     30 H          -2.9841    2.2914   -1.0283 H       1  LIG1        0.0621
     31 H          -3.6018   -1.4153   -0.6062 H       1  LIG1        0.0621
     32 H          -1.4606   -0.3090    2.0565 H       1  LIG1        0.0621
     33 H           0.6760   -1.9156   -0.2548 H       1  LIG1        0.0621
     34 H          -2.0279   -0.0130   -3.9901 H       1  LIG1        0.0524
     35 H          -1.3148   -1.3443   -3.0807 H       1  LIG1        0.0524
     36 H          -0.4071    0.1720   -3.3284 H       1  LIG1        0.0524
     37 H          -4.3135    3.4923    0.6543 H       1  LIG1        0.0618
     38 H          -3.9000   -3.8347   -0.2360 H       1  LIG1        0.0618
     39 H          -2.8024    0.8962    3.7255 H       1  LIG1        0.0618
     40 H           0.3556   -4.3056    0.1111 H       1  LIG1        0.0618
     41 H          -4.2442    2.7993    3.0392 H       1  LIG1        0.0618
     42 H          -1.9211   -5.2943    0.1261 H       1  LIG1        0.0618
     43 H           5.7067    1.8620    0.8147 H       1  LIG1        0.0653
     44 H           3.6275    1.8572    3.9857 H       1  LIG1        0.0293
     45 H           4.6774    3.0177    3.1532 H       1  LIG1        0.0293
     46 H           5.2594    1.3672    3.4989 H       1  LIG1        0.0293
     47 H           4.3309    0.6775   -2.5166 H       1  LIG1        0.0293
     48 H           5.8111    0.4560   -1.5677 H       1  LIG1        0.0293
     49 H           5.2232    2.0980   -1.9437 H       1  LIG1        0.0293
@<TRIPOS>BOND
     1     1     7    1
     2     1    16    1
     3     2     8    1
     4     2    23    1
     5     3    15   ar
     6     4    15   ar
     7     5    23   ar
     8     5    24   ar
     9     6    23   ar
    10     6    25   ar
    11     7     8    1
    12     7     9    1
    13     7    10    1
    14     8    15    1
    15     9    11   ar
    16     9    13   ar
    17    10    12   ar
    18    10    14   ar
    19    11    17   ar
    20    12    18   ar
    21    13    19   ar
    22    14    20   ar
    23    17    21   ar
    24    18    22   ar
    25    19    21   ar
    26    20    22   ar
    27    24    26   ar
    28    24    27    1
    29    25    26   ar
    30    25    28    1
    31     8    29    1
    32    11    30    1
    33    12    31    1
    34    13    32    1
    35    14    33    1
    36    16    34    1
    37    16    35    1
    38    16    36    1
    39    17    37    1
    40    18    38    1
    41    19    39    1
    42    20    40    1
    43    21    41    1
    44    22    42    1
    45    26    43    1
    46    27    44    1
    47    27    45    1
    48    27    46    1
    49    28    47    1
    50    28    48    1
    51    28    49    1
@<TRIPOS>MOLECULE
6918493
 49 51 0 0 0
SMALL
GASTEIGER

@<TRIPOS>ATOM
      1 O          -1.9856    0.2582   -1.9643 O.3     1  LIG1       -0.3632
      2 O           0.7909    0.3680    0.6165 O.3     1  LIG1       -0.4495
      3 O           0.2782    2.9557   -0.1791 O.co2   1  LIG1       -0.5459
      4 O           0.2921    2.3010   -2.3541 O.co2   1  LIG1       -0.5459
      5 N           2.8366    0.6648   -0.4912 N.ar    1  LIG1       -0.2002
      6 N           2.5992    1.0907    1.8431 N.ar    1  LIG1       -0.2002
      7 C          -1.3095    0.0579   -0.6839 C.3     1  LIG1        0.1609
      8 C           0.1646    0.5908   -0.6848 C.3     1  LIG1        0.1791
      9 C          -2.1511    0.8300    0.3753 C.ar    1  LIG1       -0.0075
     10 C          -1.4530   -1.4853   -0.4405 C.ar    1  LIG1       -0.0075
     11 C          -2.8391    2.0070    0.0280 C.ar    1  LIG1       -0.0554
     12 C          -2.7432   -2.0644   -0.4622 C.ar    1  LIG1       -0.0554
     13 C          -2.2121    0.4119    1.7195 C.ar    1  LIG1       -0.0554
     14 C          -0.3627   -2.3474   -0.2399 C.ar    1  LIG1       -0.0554
     15 C           0.2299    2.0913   -1.1021 C.2     1  LIG1        0.0856
     16 C          -1.3566   -0.2957   -3.1132 C.3     1  LIG1        0.0382
     17 C          -3.5691    2.7261    0.9780 C.ar    1  LIG1       -0.0614
     18 C          -2.9354   -3.4352   -0.2775 C.ar    1  LIG1       -0.0614
     19 C          -2.9584    1.1200    2.6653 C.ar    1  LIG1       -0.0614
     20 C          -0.5554   -3.7218   -0.0553 C.ar    1  LIG1       -0.0614
     21 C          -3.6361    2.2778    2.2943 C.ar    1  LIG1       -0.0617
     22 C          -1.8369   -4.2640   -0.0726 C.ar    1  LIG1       -0.0617
     23 C           2.1138    0.7553    0.6377 C.ar    1  LIG1        0.3191
     24 C           4.0950    1.1297   -0.4375 C.ar    1  LIG1        0.0453
     25 C           3.8669    1.5400    1.8662 C.ar    1  LIG1        0.0453
     26 C           4.6611    1.5878    0.7353 C.ar    1  LIG1       -0.0193
     27 C           4.8664    1.1573   -1.7203 C.3     1  LIG1       -0.0221
     28 C           4.3979    2.0220    3.1809 C.3     1  LIG1       -0.0221
     29 H           0.7303    0.0178   -1.4311 H       1  LIG1        0.0834
     30 H          -2.7641    2.3976   -0.9862 H       1  LIG1        0.0621
     31 H          -3.6098   -1.4259   -0.6327 H       1  LIG1        0.0621
     32 H          -1.6584   -0.4662    2.0440 H       1  LIG1        0.0621
     33 H           0.6568   -1.9721   -0.2255 H       1  LIG1        0.0621
     34 H          -1.9658   -0.0349   -3.9833 H       1  LIG1        0.0524
     35 H          -1.3137   -1.3871   -3.0604 H       1  LIG1        0.0524
     36 H          -0.3556    0.1003   -3.2843 H       1  LIG1        0.0524
     37 H          -4.0541    3.6527    0.6873 H       1  LIG1        0.0618
     38 H          -3.9392   -3.8461   -0.2978 H       1  LIG1        0.0618
     39 H          -2.9836    0.7781    3.6951 H       1  LIG1        0.0618
     40 H           0.3061   -4.3655    0.1005 H       1  LIG1        0.0618
     41 H          -4.1884    2.8476    3.0342 H       1  LIG1        0.0618
     42 H          -1.9803   -5.3317    0.0698 H       1  LIG1        0.0618
     43 H           5.6701    1.9756    0.7643 H       1  LIG1        0.0653
     44 H           4.2541    0.7943   -2.5525 H       1  LIG1        0.0293
     45 H           5.7512    0.5182   -1.6436 H       1  LIG1        0.0293
     46 H           5.1799    2.1800   -1.9523 H       1  LIG1        0.0293
     47 H           3.6359    1.9440    3.9630 H       1  LIG1        0.0293
     48 H           4.7001    3.0715    3.1054 H       1  LIG1        0.0293
     49 H           5.2608    1.4207    3.4834 H       1  LIG1        0.0293
@<TRIPOS>BOND
     1     1     7    1
     2     1    16    1
     3     2     8    1
     4     2    23    1
     5     3    15   ar
     6     4    15   ar
     7     5    23   ar
     8     5    24   ar
     9     6    23   ar
    10     6    25   ar
    11     7     8    1
    12     7     9    1
    13     7    10    1
    14     8    15    1
    15     9    11   ar
    16     9    13   ar
    17    10    12   ar
    18    10    14   ar
    19    11    17   ar
    20    12    18   ar
    21    13    19   ar
    22    14    20   ar
    23    17    21   ar
    24    18    22   ar
    25    19    21   ar
    26    20    22   ar
    27    24    26   ar
    28    24    27    1
    29    25    26   ar
    30    25    28    1
    31     8    29    1
    32    11    30    1
    33    12    31    1
    34    13    32    1
    35    14    33    1
    36    16    34    1
    37    16    35    1
    38    16    36    1
    39    17    37    1
    40    18    38    1
    41    19    39    1
    42    20    40    1
    43    21    41    1
    44    22    42    1
    45    26    43    1
    46    27    44    1
    47    27    45    1
    48    27    46    1
    49    28    47    1
    50    28    48    1
    51    28    49    1
@<TRIPOS>MOLECULE
6918493
 49 51 0 0 0
SMALL
GASTEIGER

@<TRIPOS>ATOM
      1 O          -2.0046    0.2839   -1.9753 O.3     1  LIG1       -0.3632
      2 O           0.7826    0.4169    0.5871 O.3     1  LIG1       -0.4495
      3 O           0.2140    2.9926   -0.2286 O.co2   1  LIG1       -0.5459
      4 O           0.3361    2.3178   -2.3948 O.co2   1  LIG1       -0.5459
      5 N           2.5840    1.1112    1.8317 N.ar    1  LIG1       -0.2002
      6 N           2.8448    0.6748   -0.4977 N.ar    1  LIG1       -0.2002
      7 C          -1.3131    0.0896   -0.7033 C.3     1  LIG1        0.1609
      8 C           0.1595    0.6255   -0.7168 C.3     1  LIG1        0.1791
      9 C          -2.1536    0.8535    0.3639 C.ar    1  LIG1       -0.0075
     10 C          -1.4422   -1.4533   -0.4481 C.ar    1  LIG1       -0.0075
     11 C          -2.9491    1.9573    0.0048 C.ar    1  LIG1       -0.0554
     12 C          -0.3427   -2.3046   -0.2461 C.ar    1  LIG1       -0.0554
     13 C          -2.1192    0.4897    1.7245 C.ar    1  LIG1       -0.0554
     14 C          -2.7271   -2.0433   -0.4515 C.ar    1  LIG1       -0.0554
     15 C           0.2191    2.1201   -1.1445 C.2     1  LIG1        0.0856
     16 C          -1.3875   -0.2562   -3.1348 C.3     1  LIG1        0.0382
     17 C          -3.6995    2.6497    0.9588 C.ar    1  LIG1       -0.0614
     18 C          -0.5201   -3.6775   -0.0409 C.ar    1  LIG1       -0.0614
     19 C          -2.8761    1.1769    2.6771 C.ar    1  LIG1       -0.0614
     20 C          -2.9036   -3.4134   -0.2484 C.ar    1  LIG1       -0.0614
     21 C          -3.6691    2.2549    2.2932 C.ar    1  LIG1       -0.0617
     22 C          -1.7978   -4.2311   -0.0410 C.ar    1  LIG1       -0.0617
     23 C           2.1072    0.7894    0.6188 C.ar    1  LIG1        0.3191
     24 C           3.8664    1.5129    1.8792 C.ar    1  LIG1        0.0453
     25 C           4.1199    1.0898   -0.4195 C.ar    1  LIG1        0.0453
     26 C           4.6812    1.5302    0.7629 C.ar    1  LIG1       -0.0193
     27 C           4.3882    1.9795    3.2031 C.3     1  LIG1       -0.0221
     28 C           4.9174    1.0861   -1.6868 C.3     1  LIG1       -0.0221
     29 H           0.7246    0.0468   -1.4594 H       1  LIG1        0.0834
     30 H          -2.9535    2.3084   -1.0262 H       1  LIG1        0.0621
     31 H           0.6740   -1.9209   -0.2436 H       1  LIG1        0.0621
     32 H          -1.4814   -0.3273    2.0537 H       1  LIG1        0.0621
     33 H          -3.6009   -1.4146   -0.6207 H       1  LIG1        0.0621
     34 H          -2.0213   -0.0077   -3.9912 H       1  LIG1        0.0524
     35 H          -1.3198   -1.3461   -3.0831 H       1  LIG1        0.0524
     36 H          -0.4003    0.1638   -3.3260 H       1  LIG1        0.0524
     37 H          -4.2807    3.5143    0.6545 H       1  LIG1        0.0618
     38 H           0.3481   -4.3107    0.1186 H       1  LIG1        0.0618
     39 H          -2.8229    0.8817    3.7204 H       1  LIG1        0.0618
     40 H          -3.9048   -3.8341   -0.2546 H       1  LIG1        0.0618
     41 H          -4.2375    2.8055    3.0353 H       1  LIG1        0.0618
     42 H          -1.9300   -5.2966    0.1183 H       1  LIG1        0.0618
     43 H           5.7038    1.8788    0.8104 H       1  LIG1        0.0653
     44 H           3.6265    1.8756    3.9825 H       1  LIG1        0.0293
     45 H           4.6742    3.0343    3.1451 H       1  LIG1        0.0293
     46 H           5.2594    1.3866    3.4980 H       1  LIG1        0.0293
     47 H           4.3287    0.6845   -2.5178 H       1  LIG1        0.0293
     48 H           5.8105    0.4643   -1.5711 H       1  LIG1        0.0293
     49 H           5.2199    2.1056   -1.9453 H       1  LIG1        0.0293
@<TRIPOS>BOND
     1     1     7    1
     2     1    16    1
     3     2     8    1
     4     2    23    1
     5     3    15   ar
     6     4    15   ar
     7     5    23   ar
     8     5    24   ar
     9     6    23   ar
    10     6    25   ar
    11     7     8    1
    12     7     9    1
    13     7    10    1
    14     8    15    1
    15     9    11   ar
    16     9    13   ar
    17    10    12   ar
    18    10    14   ar
    19    11    17   ar
    20    12    18   ar
    21    13    19   ar
    22    14    20   ar
    23    17    21   ar
    24    18    22   ar
    25    19    21   ar
    26    20    22   ar
    27    24    26   ar
    28    24    27    1
    29    25    26   ar
    30    25    28    1
    31     8    29    1
    32    11    30    1
    33    12    31    1
    34    13    32    1
    35    14    33    1
    36    16    34    1
    37    16    35    1
    38    16    36    1
    39    17    37    1
    40    18    38    1
    41    19    39    1
    42    20    40    1
    43    21    41    1
    44    22    42    1
    45    26    43    1
    46    27    44    1
    47    27    45    1
    48    27    46    1
    49    28    47    1
    50    28    48    1
    51    28    49    1
@<TRIPOS>MOLECULE
6918493
 49 51 0 0 0
SMALL
GASTEIGER

@<TRIPOS>ATOM
      1 O          -2.0066    0.2870   -1.9778 O.3     1  LIG1       -0.3632
      2 O           0.7813    0.4224    0.5835 O.3     1  LIG1       -0.4495
      3 O           0.2097    2.9987   -0.2235 O.co2   1  LIG1       -0.5459
      4 O           0.3257    2.3313   -2.3924 O.co2   1  LIG1       -0.5459
      5 N           2.8427    0.6877   -0.5015 N.ar    1  LIG1       -0.2002
      6 N           2.5853    1.0985    1.8330 N.ar    1  LIG1       -0.2002
      7 C          -1.3148    0.0953   -0.7056 C.3     1  LIG1        0.1609
      8 C           0.1567    0.6331   -0.7195 C.3     1  LIG1        0.1791
      9 C          -2.1563    0.8575    0.3615 C.ar    1  LIG1       -0.0075
     10 C          -1.4414   -1.4482   -0.4496 C.ar    1  LIG1       -0.0075
     11 C          -2.9640    1.9517    0.0016 C.ar    1  LIG1       -0.0554
     12 C          -0.3406   -2.2976   -0.2511 C.ar    1  LIG1       -0.0554
     13 C          -2.1116    0.5001    1.7237 C.ar    1  LIG1       -0.0554
     14 C          -2.7257   -2.0388   -0.4486 C.ar    1  LIG1       -0.0554
     15 C           0.2133    2.1292   -1.1424 C.2     1  LIG1        0.0856
     16 C          -1.3873   -0.2506   -3.1374 C.3     1  LIG1        0.0382
     17 C          -3.7160    2.6411    0.9562 C.ar    1  LIG1       -0.0614
     18 C          -0.5153   -3.6711   -0.0442 C.ar    1  LIG1       -0.0614
     19 C          -2.8695    1.1850    2.6775 C.ar    1  LIG1       -0.0614
     20 C          -2.9001   -3.4096   -0.2438 C.ar    1  LIG1       -0.0614
     21 C          -3.6747    2.2532    2.2926 C.ar    1  LIG1       -0.0617
     22 C          -1.7936   -4.2256   -0.0395 C.ar    1  LIG1       -0.0617
     23 C           2.1065    0.7923    0.6166 C.ar    1  LIG1        0.3191
     24 C           4.1196    1.0959   -0.4197 C.ar    1  LIG1        0.0453
     25 C           3.8696    1.4933    1.8841 C.ar    1  LIG1        0.0453
     26 C           4.6839    1.5199    0.7679 C.ar    1  LIG1       -0.0193
     27 C           4.9167    1.1027   -1.6867 C.3     1  LIG1       -0.0221
     28 C           4.3947    1.9411    3.2133 C.3     1  LIG1       -0.0221
     29 H           0.7228    0.0578   -1.4643 H       1  LIG1        0.0834
     30 H          -2.9777    2.2976   -1.0305 H       1  LIG1        0.0621
     31 H           0.6757   -1.9136   -0.2524 H       1  LIG1        0.0621
     32 H          -1.4642   -0.3101    2.0533 H       1  LIG1        0.0621
     33 H          -3.6008   -1.4118   -0.6151 H       1  LIG1        0.0621
     34 H          -2.0244   -0.0083   -3.9931 H       1  LIG1        0.0524
     35 H          -1.3112   -1.3399   -3.0840 H       1  LIG1        0.0524
     36 H          -0.4039    0.1768   -3.3307 H       1  LIG1        0.0524
     37 H          -4.3079    3.4985    0.6514 H       1  LIG1        0.0618
     38 H           0.3533   -4.3032    0.1128 H       1  LIG1        0.0618
     39 H          -2.8071    0.8951    3.7217 H       1  LIG1        0.0618
     40 H          -3.9010   -3.8309   -0.2464 H       1  LIG1        0.0618
     41 H          -4.2442    2.8017    3.0353 H       1  LIG1        0.0618
     42 H          -1.9239   -5.2908    0.1213 H       1  LIG1        0.0618
     43 H           5.7082    1.8628    0.8186 H       1  LIG1        0.0653
     44 H           4.3263    0.7113   -2.5221 H       1  LIG1        0.0293
     45 H           5.8081    0.4770   -1.5782 H       1  LIG1        0.0293
     46 H           5.2219    2.1242   -1.9353 H       1  LIG1        0.0293
     47 H           3.6339    1.8284    3.9927 H       1  LIG1        0.0293
     48 H           4.6830    2.9960    3.1691 H       1  LIG1        0.0293
     49 H           5.2651    1.3423    3.4991 H       1  LIG1        0.0293
@<TRIPOS>BOND
     1     1     7    1
     2     1    16    1
     3     2     8    1
     4     2    23    1
     5     3    15   ar
     6     4    15   ar
     7     5    23   ar
     8     5    24   ar
     9     6    23   ar
    10     6    25   ar
    11     7     8    1
    12     7     9    1
    13     7    10    1
    14     8    15    1
    15     9    11   ar
    16     9    13   ar
    17    10    12   ar
    18    10    14   ar
    19    11    17   ar
    20    12    18   ar
    21    13    19   ar
    22    14    20   ar
    23    17    21   ar
    24    18    22   ar
    25    19    21   ar
    26    20    22   ar
    27    24    26   ar
    28    24    27    1
    29    25    26   ar
    30    25    28    1
    31     8    29    1
    32    11    30    1
    33    12    31    1
    34    13    32    1
    35    14    33    1
    36    16    34    1
    37    16    35    1
    38    16    36    1
    39    17    37    1
    40    18    38    1
    41    19    39    1
    42    20    40    1
    43    21    41    1
    44    22    42    1
    45    26    43    1
    46    27    44    1
    47    27    45    1
    48    27    46    1
    49    28    47    1
    50    28    48    1
    51    28    49    1
@<TRIPOS>MOLECULE
6918493
 49 51 0 0 0
SMALL
GASTEIGER

@<TRIPOS>ATOM
      1 O          -2.0012    0.2294   -1.9699 O.3     1  LIG1       -0.3632
      2 O           0.8108    0.3976    0.5657 O.3     1  LIG1       -0.4495
      3 O           0.1582    2.9727   -0.1958 O.co2   1  LIG1       -0.5459
      4 O           0.3012    2.3339   -2.3723 O.co2   1  LIG1       -0.5459
      5 N           2.6080    1.1231    1.7940 N.ar    1  LIG1       -0.2002
      6 N           2.8556    0.6979   -0.5385 N.ar    1  LIG1       -0.2002
      7 C          -1.3145    0.0718   -0.6894 C.3     1  LIG1        0.1609
      8 C           0.1572    0.6151   -0.7203 C.3     1  LIG1        0.1791
      9 C          -2.1663    0.8393    0.3679 C.ar    1  LIG1       -0.0075
     10 C          -1.4401   -1.4654   -0.4017 C.ar    1  LIG1       -0.0075
     11 C          -3.1585    1.7599   -0.0165 C.ar    1  LIG1       -0.0554
     12 C          -2.7258   -2.0523   -0.3635 C.ar    1  LIG1       -0.0554
     13 C          -1.9643    0.6377    1.7477 C.ar    1  LIG1       -0.0554
     14 C          -0.3374   -2.3177   -0.2252 C.ar    1  LIG1       -0.0554
     15 C           0.1829    2.1156   -1.1258 C.2     1  LIG1        0.0856
     16 C          -1.3632   -0.3089   -3.1185 C.3     1  LIG1        0.0382
     17 C          -3.9271    2.4358    0.9352 C.ar    1  LIG1       -0.0614
     18 C          -2.9002   -3.4206   -0.1470 C.ar    1  LIG1       -0.0614
     19 C          -2.7269    1.3198    2.6993 C.ar    1  LIG1       -0.0614
     20 C          -0.5125   -3.6890   -0.0066 C.ar    1  LIG1       -0.0614
     21 C          -3.7122    2.2147    2.2931 C.ar    1  LIG1       -0.0617
     22 C          -1.7911   -4.2396    0.0331 C.ar    1  LIG1       -0.0617
     23 C           2.1261    0.7984    0.5840 C.ar    1  LIG1        0.3191
     24 C           3.8844    1.5432    1.8338 C.ar    1  LIG1        0.0453
     25 C           4.1262    1.1288   -0.4677 C.ar    1  LIG1        0.0453
     26 C           4.6908    1.5726    0.7123 C.ar    1  LIG1       -0.0193
     27 C           4.4093    2.0112    3.1563 C.3     1  LIG1       -0.0221
     28 C           4.9185    1.1335   -1.7384 C.3     1  LIG1       -0.0221
     29 H           0.7153    0.0514   -1.4793 H       1  LIG1        0.0834
     30 H          -3.3203    1.9769   -1.0703 H       1  LIG1        0.0621
     31 H          -3.6031   -1.4246   -0.5160 H       1  LIG1        0.0621
     32 H          -1.1877   -0.0421    2.0909 H       1  LIG1        0.0621
     33 H           0.6797   -1.9372   -0.2592 H       1  LIG1        0.0621
     34 H          -2.0257   -0.1398   -3.9726 H       1  LIG1        0.0524
     35 H          -1.2113   -1.3878   -3.0293 H       1  LIG1        0.0524
     36 H          -0.4152    0.1803   -3.3418 H       1  LIG1        0.0524
     37 H          -4.6732    3.1534    0.6085 H       1  LIG1        0.0618
     38 H          -3.9022   -3.8381   -0.1236 H       1  LIG1        0.0618
     39 H          -2.5302    1.1641    3.7553 H       1  LIG1        0.0618
     40 H           0.3581   -4.3245    0.1301 H       1  LIG1        0.0618
     41 H          -4.2916    2.7594    3.0313 H       1  LIG1        0.0618
     42 H          -1.9216   -5.3042    0.2008 H       1  LIG1        0.0618
     43 H           5.7096    1.9331    0.7538 H       1  LIG1        0.0653
     44 H           3.6471    1.9142    3.9363 H       1  LIG1        0.0293
     45 H           4.7011    3.0644    3.0953 H       1  LIG1        0.0293
     46 H           5.2774    1.4143    3.4524 H       1  LIG1        0.0293
     47 H           4.3242    0.7435   -2.5711 H       1  LIG1        0.0293
     48 H           5.8087    0.5057   -1.6323 H       1  LIG1        0.0293
     49 H           5.2259    2.1539   -1.9885 H       1  LIG1        0.0293
@<TRIPOS>BOND
     1     1     7    1
     2     1    16    1
     3     2     8    1
     4     2    23    1
     5     3    15   ar
     6     4    15   ar
     7     5    23   ar
     8     5    24   ar
     9     6    23   ar
    10     6    25   ar
    11     7     8    1
    12     7     9    1
    13     7    10    1
    14     8    15    1
    15     9    11   ar
    16     9    13   ar
    17    10    12   ar
    18    10    14   ar
    19    11    17   ar
    20    12    18   ar
    21    13    19   ar
    22    14    20   ar
    23    17    21   ar
    24    18    22   ar
    25    19    21   ar
    26    20    22   ar
    27    24    26   ar
    28    24    27    1
    29    25    26   ar
    30    25    28    1
    31     8    29    1
    32    11    30    1
    33    12    31    1
    34    13    32    1
    35    14    33    1
    36    16    34    1
    37    16    35    1
    38    16    36    1
    39    17    37    1
    40    18    38    1
    41    19    39    1
    42    20    40    1
    43    21    41    1
    44    22    42    1
    45    26    43    1
    46    27    44    1
    47    27    45    1
    48    27    46    1
    49    28    47    1
    50    28    48    1
    51    28    49    1
