@<TRIPOS>MOLECULE
159594
 75 78 0 0 0
SMALL
GASTEIGER

@<TRIPOS>ATOM
      1 O          -1.4698   -1.3061   -4.0047 O.co2   1  LIG1       -0.5493
      2 O          -2.1536   -3.1594   -2.8589 O.co2   1  LIG1       -0.5493
      3 O          -6.6446    0.8133    0.0405 O.3     1  LIG1       -0.4526
      4 O           1.0105    2.6045   -0.3063 O.2     1  LIG1       -0.2697
      5 O          -5.9676    2.5307    1.5921 O.3     1  LIG1       -0.4526
      6 O           1.1176   -5.1972    2.4395 O.3     1  LIG1       -0.4951
      7 N           0.0766    0.1586   -1.0930 N.4     1  LIG1        0.2481
      8 N           3.2543    2.1321   -0.3444 N.am    1  LIG1       -0.2971
      9 C          -1.8352   -1.1488   -1.6995 C.3     1  LIG1        0.0574
     10 C          -2.1423    0.3378   -1.9491 C.3     1  LIG1        0.0378
     11 C          -0.3306   -1.2688   -1.4380 C.3     1  LIG1        0.0143
     12 C          -0.7544    0.9667   -2.0724 C.3     1  LIG1       -0.0230
     13 C          -3.0718    0.9262   -0.8866 C.ar    1  LIG1       -0.0347
     14 C           0.0693   -2.2834   -0.3838 C.ar    1  LIG1        0.0011
     15 C           1.5649    0.4340   -1.1510 C.3     1  LIG1        0.0468
     16 C          -1.8592   -1.9474   -2.9896 C.2     1  LIG1        0.0513
     17 C          -4.4173    0.4993   -0.9031 C.ar    1  LIG1       -0.0125
     18 C           1.9217    1.8171   -0.5758 C.2     1  LIG1        0.2608
     19 C          -2.6927    1.9262    0.0413 C.ar    1  LIG1       -0.0544
     20 C           0.8829   -3.3640   -0.7713 C.ar    1  LIG1       -0.0498
     21 C          -0.3630   -2.2231    0.9459 C.ar    1  LIG1       -0.0498
     22 C          -5.3152    1.0866   -0.0353 C.ar    1  LIG1        0.1665
     23 C          -3.6271    2.4981    0.9170 C.ar    1  LIG1       -0.0159
     24 C          -4.9308    2.0634    0.8477 C.ar    1  LIG1        0.1662
     25 C           1.2642   -4.3525    0.1398 C.ar    1  LIG1       -0.0195
     26 C           0.0213   -3.2171    1.8564 C.ar    1  LIG1       -0.0195
     27 C           3.5511    3.3834    0.3738 C.3     1  LIG1        0.0148
     28 C           4.3846    1.2560   -0.6916 C.3     1  LIG1        0.0148
     29 C           0.8293   -4.2871    1.4594 C.ar    1  LIG1        0.1201
     30 C           3.3865    3.3076    1.8982 C.3     1  LIG1       -0.0374
     31 C           5.4900    1.8866   -1.5551 C.3     1  LIG1       -0.0374
     32 C          -7.0582    1.7539    1.0521 C.3     1  LIG1        0.2332
     33 C           1.9342    3.4409    2.3652 C.3     1  LIG1       -0.0545
     34 C           5.0645    2.3700   -2.9453 C.3     1  LIG1       -0.0545
     35 C           1.8363    3.7793    3.8436 C.3     1  LIG1       -0.0652
     36 C           4.2815    3.6740   -2.9515 C.3     1  LIG1       -0.0652
     37 C           1.7535   -6.4017    2.0222 C.3     1  LIG1        0.0788
     38 H          -0.2529    0.3795   -0.1472 H       1  LIG1        0.2045
     39 H          -2.4685   -1.6132   -0.9369 H       1  LIG1        0.0427
     40 H          -2.6661    0.5093   -2.8994 H       1  LIG1        0.0409
     41 H           0.2668   -1.4852   -2.3360 H       1  LIG1        0.0911
     42 H          -0.3162    0.8183   -3.0658 H       1  LIG1        0.0821
     43 H          -0.7091    2.0278   -1.8266 H       1  LIG1        0.0821
     44 H           1.8839    0.3566   -2.1944 H       1  LIG1        0.0913
     45 H           2.0432   -0.3324   -0.5356 H       1  LIG1        0.0913
     46 H          -4.7607   -0.2564   -1.6065 H       1  LIG1        0.0658
     47 H          -1.6784    2.3138    0.0926 H       1  LIG1        0.0622
     48 H           1.1958   -3.4745   -1.8101 H       1  LIG1        0.0623
     49 H          -1.0337   -1.4379    1.2865 H       1  LIG1        0.0623
     50 H          -3.3408    3.2807    1.6115 H       1  LIG1        0.0655
     51 H           1.8787   -5.1696   -0.2239 H       1  LIG1        0.0654
     52 H          -0.3396   -3.1773    2.8820 H       1  LIG1        0.0654
     53 H           2.9156    4.1786   -0.0339 H       1  LIG1        0.0464
     54 H           4.5807    3.6803    0.1603 H       1  LIG1        0.0464
     55 H           4.0275    0.3634   -1.2105 H       1  LIG1        0.0464
     56 H           4.8204    0.9140    0.2543 H       1  LIG1        0.0464
     57 H           3.9630    4.1359    2.3296 H       1  LIG1        0.0280
     58 H           3.8210    2.3796    2.2879 H       1  LIG1        0.0280
     59 H           6.2563    1.1132   -1.7012 H       1  LIG1        0.0280
     60 H           5.9971    2.6968   -1.0210 H       1  LIG1        0.0280
     61 H          -7.5355    1.2036    1.8708 H       1  LIG1        0.1166
     62 H          -7.7939    2.4393    0.6142 H       1  LIG1        0.1166
     63 H           1.3973    2.5035    2.1864 H       1  LIG1        0.0263
     64 H           1.4264    4.2300    1.7986 H       1  LIG1        0.0263
     65 H           4.4934    1.5913   -3.4628 H       1  LIG1        0.0263
     66 H           5.9769    2.5326   -3.5334 H       1  LIG1        0.0263
     67 H           2.3137    3.0102    4.4575 H       1  LIG1        0.0230
     68 H           0.7856    3.8544    4.1422 H       1  LIG1        0.0230
     69 H           2.3148    4.7410    4.0560 H       1  LIG1        0.0230
     70 H           3.2572    3.5310   -2.6002 H       1  LIG1        0.0230
     71 H           4.2187    4.0694   -3.9706 H       1  LIG1        0.0230
     72 H           4.7651    4.4330   -2.3285 H       1  LIG1        0.0230
     73 H           1.8224   -7.0644    2.8904 H       1  LIG1        0.0660
     74 H           2.7726   -6.2046    1.6731 H       1  LIG1        0.0660
     75 H           1.1676   -6.9203    1.2552 H       1  LIG1        0.0660
@<TRIPOS>BOND
     1     1    16   ar
     2     2    16   ar
     3     3    22    1
     4     3    32    1
     5     4    18    2
     6     5    24    1
     7     5    32    1
     8     6    29    1
     9     6    37    1
    10     7    11    1
    11     7    12    1
    12     7    15    1
    13     8    18   am
    14     8    27    1
    15     8    28    1
    16     9    10    1
    17     9    11    1
    18     9    16    1
    19    10    12    1
    20    10    13    1
    21    11    14    1
    22    13    17   ar
    23    13    19   ar
    24    14    20   ar
    25    14    21   ar
    26    15    18    1
    27    17    22   ar
    28    19    23   ar
    29    20    25   ar
    30    21    26   ar
    31    22    24   ar
    32    23    24   ar
    33    25    29   ar
    34    26    29   ar
    35    27    30    1
    36    28    31    1
    37    30    33    1
    38    31    34    1
    39    33    35    1
    40    34    36    1
    41     7    38    1
    42     9    39    1
    43    10    40    1
    44    11    41    1
    45    12    42    1
    46    12    43    1
    47    15    44    1
    48    15    45    1
    49    17    46    1
    50    19    47    1
    51    20    48    1
    52    21    49    1
    53    23    50    1
    54    25    51    1
    55    26    52    1
    56    27    53    1
    57    27    54    1
    58    28    55    1
    59    28    56    1
    60    30    57    1
    61    30    58    1
    62    31    59    1
    63    31    60    1
    64    32    61    1
    65    32    62    1
    66    33    63    1
    67    33    64    1
    68    34    65    1
    69    34    66    1
    70    35    67    1
    71    35    68    1
    72    35    69    1
    73    36    70    1
    74    36    71    1
    75    36    72    1
    76    37    73    1
    77    37    74    1
    78    37    75    1
@<TRIPOS>MOLECULE
159594
 75 78 0 0 0
SMALL
GASTEIGER

@<TRIPOS>ATOM
      1 O          -1.9661   -1.4192   -3.8274 O.co2   1  LIG1       -0.5493
      2 O          -2.8584   -3.0249   -2.4724 O.co2   1  LIG1       -0.5493
      3 O          -3.5597    2.8947    2.3352 O.3     1  LIG1       -0.4526
      4 O           1.5633   -0.0032   -3.4444 O.2     1  LIG1       -0.2697
      5 O          -5.9130    2.7576    1.8186 O.3     1  LIG1       -0.4526
      6 O           1.0433   -5.4287    2.1968 O.3     1  LIG1       -0.4951
      7 N          -0.0640    0.1753   -1.0486 N.4     1  LIG1        0.2481
      8 N           3.5796    0.2273   -2.3783 N.am    1  LIG1       -0.2971
      9 C          -2.0483   -1.0531   -1.5149 C.3     1  LIG1        0.0574
     10 C          -2.3001    0.4260   -1.8516 C.3     1  LIG1        0.0378
     11 C          -0.5372   -1.2482   -1.3761 C.3     1  LIG1        0.0143
     12 C          -0.9017    1.0317   -1.9679 C.3     1  LIG1       -0.0230
     13 C          -3.2444    1.0683   -0.8422 C.ar    1  LIG1       -0.0347
     14 C          -0.1381   -2.2934   -0.3358 C.ar    1  LIG1        0.0011
     15 C           1.4319    0.4141   -1.0837 C.3     1  LIG1        0.0468
     16 C          -2.3344   -1.9138   -2.7289 C.2     1  LIG1        0.0513
     17 C          -2.8295    1.7148    0.3318 C.ar    1  LIG1       -0.0125
     18 C           2.1812    0.1860   -2.3982 C.2     1  LIG1        0.2608
     19 C          -4.6354    0.9808   -1.1174 C.ar    1  LIG1       -0.0544
     20 C           0.2146   -2.0077    0.9938 C.ar    1  LIG1       -0.0498
     21 C          -0.1210   -3.6408   -0.7333 C.ar    1  LIG1       -0.0498
     22 C          -3.7984    2.2450    1.1631 C.ar    1  LIG1        0.1665
     23 C          -5.5911    1.5386   -0.2634 C.ar    1  LIG1       -0.0159
     24 C          -5.1387    2.1645    0.8729 C.ar    1  LIG1        0.1662
     25 C           0.6283   -3.0244    1.8704 C.ar    1  LIG1       -0.0195
     26 C           0.2684   -4.6532    0.1478 C.ar    1  LIG1       -0.0195
     27 C           4.2497    0.1025   -3.6846 C.3     1  LIG1        0.0148
     28 C           4.4181    0.6471   -1.2456 C.3     1  LIG1        0.0148
     29 C           0.6640   -4.3512    1.4479 C.ar    1  LIG1        0.1201
     30 C           4.1793    1.3728   -4.5474 C.3     1  LIG1       -0.0374
     31 C           4.4080   -0.2287    0.0150 C.3     1  LIG1       -0.0374
     32 C          -4.9094    3.2008    2.7526 C.3     1  LIG1        0.2332
     33 C           4.9541    2.5827   -4.0206 C.3     1  LIG1       -0.0545
     34 C           4.3490   -1.7405   -0.2012 C.3     1  LIG1       -0.0545
     35 C           6.4615    2.3844   -4.0198 C.3     1  LIG1       -0.0652
     36 C           5.6109   -2.3088   -0.8255 C.3     1  LIG1       -0.0652
     37 C           1.5725   -5.1683    3.4894 C.3     1  LIG1        0.0788
     38 H          -0.3945    0.3541   -0.1020 H       1  LIG1        0.2045
     39 H          -2.6114   -1.4001   -0.6401 H       1  LIG1        0.0427
     40 H          -2.7840    0.5735   -2.8263 H       1  LIG1        0.0409
     41 H          -0.0264   -1.5106   -2.3102 H       1  LIG1        0.0911
     42 H          -0.5188    0.9342   -2.9858 H       1  LIG1        0.0821
     43 H          -0.8205    2.0719   -1.6397 H       1  LIG1        0.0821
     44 H           1.8296   -0.2543   -0.3277 H       1  LIG1        0.0913
     45 H           1.5793    1.4510   -0.7657 H       1  LIG1        0.0913
     46 H          -1.7939    1.8243    0.6189 H       1  LIG1        0.0658
     47 H          -4.9792    0.4660   -2.0168 H       1  LIG1        0.0622
     48 H           0.1840   -0.9997    1.3928 H       1  LIG1        0.0623
     49 H          -0.4354   -3.9265   -1.7397 H       1  LIG1        0.0623
     50 H          -6.6498    1.4727   -0.4881 H       1  LIG1        0.0655
     51 H           0.9032   -2.7490    2.8835 H       1  LIG1        0.0654
     52 H           0.2539   -5.6875   -0.1897 H       1  LIG1        0.0654
     53 H           3.7544   -0.7069   -4.2360 H       1  LIG1        0.0464
     54 H           5.2833   -0.2266   -3.5385 H       1  LIG1        0.0464
     55 H           4.1157    1.6650   -0.9739 H       1  LIG1        0.0464
     56 H           5.4559    0.7112   -1.5900 H       1  LIG1        0.0464
     57 H           3.1324    1.6728   -4.6746 H       1  LIG1        0.0280
     58 H           4.5505    1.1290   -5.5508 H       1  LIG1        0.0280
     59 H           3.5721    0.0676    0.6567 H       1  LIG1        0.0280
     60 H           5.2998    0.0173    0.6069 H       1  LIG1        0.0280
     61 H          -4.9986    4.2862    2.8756 H       1  LIG1        0.1166
     62 H          -5.0946    2.7203    3.7203 H       1  LIG1        0.1166
     63 H           4.6127    2.8525   -3.0164 H       1  LIG1        0.0263
     64 H           4.7246    3.4423   -4.6626 H       1  LIG1        0.0263
     65 H           3.4812   -2.0137   -0.8106 H       1  LIG1        0.0263
     66 H           4.2014   -2.2198    0.7747 H       1  LIG1        0.0263
     67 H           6.7660    1.5781   -3.3479 H       1  LIG1        0.0230
     68 H           6.9595    3.3009   -3.6867 H       1  LIG1        0.0230
     69 H           6.8252    2.1497   -5.0251 H       1  LIG1        0.0230
     70 H           5.7756   -1.9138   -1.8309 H       1  LIG1        0.0230
     71 H           5.5315   -3.3982   -0.9005 H       1  LIG1        0.0230
     72 H           6.4883   -2.0767   -0.2137 H       1  LIG1        0.0230
     73 H           1.8565   -6.1272    3.9339 H       1  LIG1        0.0660
     74 H           0.8212   -4.7097    4.1401 H       1  LIG1        0.0660
     75 H           2.4738   -4.5494    3.4278 H       1  LIG1        0.0660
@<TRIPOS>BOND
     1     1    16   ar
     2     2    16   ar
     3     3    22    1
     4     3    32    1
     5     4    18    2
     6     5    24    1
     7     5    32    1
     8     6    29    1
     9     6    37    1
    10     7    11    1
    11     7    12    1
    12     7    15    1
    13     8    18   am
    14     8    27    1
    15     8    28    1
    16     9    10    1
    17     9    11    1
    18     9    16    1
    19    10    12    1
    20    10    13    1
    21    11    14    1
    22    13    17   ar
    23    13    19   ar
    24    14    20   ar
    25    14    21   ar
    26    15    18    1
    27    17    22   ar
    28    19    23   ar
    29    20    25   ar
    30    21    26   ar
    31    22    24   ar
    32    23    24   ar
    33    25    29   ar
    34    26    29   ar
    35    27    30    1
    36    28    31    1
    37    30    33    1
    38    31    34    1
    39    33    35    1
    40    34    36    1
    41     7    38    1
    42     9    39    1
    43    10    40    1
    44    11    41    1
    45    12    42    1
    46    12    43    1
    47    15    44    1
    48    15    45    1
    49    17    46    1
    50    19    47    1
    51    20    48    1
    52    21    49    1
    53    23    50    1
    54    25    51    1
    55    26    52    1
    56    27    53    1
    57    27    54    1
    58    28    55    1
    59    28    56    1
    60    30    57    1
    61    30    58    1
    62    31    59    1
    63    31    60    1
    64    32    61    1
    65    32    62    1
    66    33    63    1
    67    33    64    1
    68    34    65    1
    69    34    66    1
    70    35    67    1
    71    35    68    1
    72    35    69    1
    73    36    70    1
    74    36    71    1
    75    36    72    1
    76    37    73    1
    77    37    74    1
    78    37    75    1
@<TRIPOS>MOLECULE
159594
 75 78 0 0 0
SMALL
GASTEIGER

@<TRIPOS>ATOM
      1 O          -1.4349   -1.2703   -4.0700 O.co2   1  LIG1       -0.5493
      2 O          -2.1088   -3.1404   -2.9446 O.co2   1  LIG1       -0.5493
      3 O          -3.4558    3.4458    1.7277 O.3     1  LIG1       -0.4526
      4 O           0.9758    2.6234   -0.3078 O.2     1  LIG1       -0.2697
      5 O          -5.7220    2.6216    1.7487 O.3     1  LIG1       -0.4526
      6 O           1.1245   -5.0687    2.4988 O.3     1  LIG1       -0.4951
      7 N           0.0688    0.1882   -1.1461 N.4     1  LIG1        0.2481
      8 N           3.2276    2.1662   -0.3359 N.am    1  LIG1       -0.2971
      9 C          -1.8235   -1.1399   -1.7635 C.3     1  LIG1        0.0574
     10 C          -2.1465    0.3444   -2.0036 C.3     1  LIG1        0.0378
     11 C          -0.3229   -1.2451   -1.4808 C.3     1  LIG1        0.0143
     12 C          -0.7620    0.9824   -2.1349 C.3     1  LIG1       -0.0230
     13 C          -3.0633    0.9155   -0.9210 C.ar    1  LIG1       -0.0347
     14 C           0.0659   -2.2410   -0.4051 C.ar    1  LIG1        0.0011
     15 C           1.5544    0.4715   -1.1846 C.3     1  LIG1        0.0468
     16 C          -1.8248   -1.9247   -3.0621 C.2     1  LIG1        0.0513
     17 C          -2.6929    1.9362   -0.0282 C.ar    1  LIG1       -0.0125
     18 C           1.8962    1.8470   -0.5812 C.2     1  LIG1        0.2608
     19 C          -4.4000    0.4363   -0.8813 C.ar    1  LIG1       -0.0544
     20 C           0.8463   -3.3521   -0.7728 C.ar    1  LIG1       -0.0498
     21 C          -0.3374   -2.1259    0.9307 C.ar    1  LIG1       -0.0498
     22 C          -3.6515    2.4391    0.8325 C.ar    1  LIG1        0.1665
     23 C          -5.3464    0.9609    0.0068 C.ar    1  LIG1       -0.0159
     24 C          -4.9412    1.9701    0.8470 C.ar    1  LIG1        0.1662
     25 C           1.2291   -4.3150    0.1648 C.ar    1  LIG1       -0.0195
     26 C           0.0497   -3.0929    1.8675 C.ar    1  LIG1       -0.0195
     27 C           3.5088    3.4257    0.3715 C.3     1  LIG1        0.0148
     28 C           4.3603    1.2792   -0.6301 C.3     1  LIG1        0.0148
     29 C           0.8278   -4.1919    1.4914 C.ar    1  LIG1        0.1201
     30 C           3.4092    3.3318    1.9000 C.3     1  LIG1       -0.0374
     31 C           5.4572    1.8701   -1.5286 C.3     1  LIG1       -0.0374
     32 C          -4.7871    3.5890    2.2678 C.3     1  LIG1        0.2332
     33 C           1.9717    3.3978    2.4227 C.3     1  LIG1       -0.0545
     34 C           5.0167    2.2587   -2.9433 C.3     1  LIG1       -0.0545
     35 C           1.9227    3.6524    3.9209 C.3     1  LIG1       -0.0652
     36 C           4.2733    3.5833   -3.0274 C.3     1  LIG1       -0.0652
     37 C           1.7113   -6.3074    2.1111 C.3     1  LIG1        0.0788
     38 H          -0.2711    0.4187   -0.2058 H       1  LIG1        0.2045
     39 H          -2.4589   -1.6224   -1.0133 H       1  LIG1        0.0427
     40 H          -2.6849    0.5146   -2.9457 H       1  LIG1        0.0409
     41 H           0.2895   -1.4699   -2.3664 H       1  LIG1        0.0911
     42 H          -0.3208    0.8283   -3.1260 H       1  LIG1        0.0821
     43 H          -0.7214    2.0458   -1.8976 H       1  LIG1        0.0821
     44 H           1.8857    0.4141   -2.2253 H       1  LIG1        0.0913
     45 H           2.0273   -0.3027   -0.5748 H       1  LIG1        0.0913
     46 H          -1.7047    2.3798    0.0029 H       1  LIG1        0.0658
     47 H          -4.7165   -0.3458   -1.5739 H       1  LIG1        0.0622
     48 H           1.1347   -3.5034   -1.8137 H       1  LIG1        0.0623
     49 H          -0.9828   -1.3148    1.2577 H       1  LIG1        0.0623
     50 H          -6.3682    0.5978    0.0167 H       1  LIG1        0.0655
     51 H           1.8208   -5.1556   -0.1821 H       1  LIG1        0.0654
     52 H          -0.2842   -3.0072    2.8996 H       1  LIG1        0.0654
     53 H           2.8301    4.2023   -0.0010 H       1  LIG1        0.0464
     54 H           4.5169    3.7575    0.1105 H       1  LIG1        0.0464
     55 H           4.0122    0.3543   -1.0954 H       1  LIG1        0.0464
     56 H           4.7985    0.9951    0.3337 H       1  LIG1        0.0464
     57 H           3.9664    4.1797    2.3181 H       1  LIG1        0.0280
     58 H           3.8967    2.4197    2.2635 H       1  LIG1        0.0280
     59 H           6.2327    1.0989   -1.6283 H       1  LIG1        0.0280
     60 H           5.9517    2.7192   -1.0453 H       1  LIG1        0.0280
     61 H          -5.1543    4.5950    2.0313 H       1  LIG1        0.1166
     62 H          -4.7375    3.4806    3.3570 H       1  LIG1        0.1166
     63 H           1.4517    2.4578    2.2105 H       1  LIG1        0.0263
     64 H           1.4241    4.2022    1.9176 H       1  LIG1        0.0263
     65 H           4.4109    1.4620   -3.3889 H       1  LIG1        0.0263
     66 H           5.9196    2.3489   -3.5605 H       1  LIG1        0.0263
     67 H           2.4311    2.8565    4.4727 H       1  LIG1        0.0230
     68 H           0.8829    3.6955    4.2609 H       1  LIG1        0.0230
     69 H           2.3976    4.6066    4.1710 H       1  LIG1        0.0230
     70 H           3.2608    3.5062   -2.6251 H       1  LIG1        0.0230
     71 H           4.1815    3.8954   -4.0730 H       1  LIG1        0.0230
     72 H           4.8055    4.3733   -2.4879 H       1  LIG1        0.0230
     73 H           1.7866   -6.9375    3.0026 H       1  LIG1        0.0660
     74 H           2.7245   -6.1555    1.7245 H       1  LIG1        0.0660
     75 H           1.0866   -6.8359    1.3825 H       1  LIG1        0.0660
@<TRIPOS>BOND
     1     1    16   ar
     2     2    16   ar
     3     3    22    1
     4     3    32    1
     5     4    18    2
     6     5    24    1
     7     5    32    1
     8     6    29    1
     9     6    37    1
    10     7    11    1
    11     7    12    1
    12     7    15    1
    13     8    18   am
    14     8    27    1
    15     8    28    1
    16     9    10    1
    17     9    11    1
    18     9    16    1
    19    10    12    1
    20    10    13    1
    21    11    14    1
    22    13    17   ar
    23    13    19   ar
    24    14    20   ar
    25    14    21   ar
    26    15    18    1
    27    17    22   ar
    28    19    23   ar
    29    20    25   ar
    30    21    26   ar
    31    22    24   ar
    32    23    24   ar
    33    25    29   ar
    34    26    29   ar
    35    27    30    1
    36    28    31    1
    37    30    33    1
    38    31    34    1
    39    33    35    1
    40    34    36    1
    41     7    38    1
    42     9    39    1
    43    10    40    1
    44    11    41    1
    45    12    42    1
    46    12    43    1
    47    15    44    1
    48    15    45    1
    49    17    46    1
    50    19    47    1
    51    20    48    1
    52    21    49    1
    53    23    50    1
    54    25    51    1
    55    26    52    1
    56    27    53    1
    57    27    54    1
    58    28    55    1
    59    28    56    1
    60    30    57    1
    61    30    58    1
    62    31    59    1
    63    31    60    1
    64    32    61    1
    65    32    62    1
    66    33    63    1
    67    33    64    1
    68    34    65    1
    69    34    66    1
    70    35    67    1
    71    35    68    1
    72    35    69    1
    73    36    70    1
    74    36    71    1
    75    36    72    1
    76    37    73    1
    77    37    74    1
    78    37    75    1
@<TRIPOS>MOLECULE
159594
 75 78 0 0 0
SMALL
GASTEIGER

@<TRIPOS>ATOM
      1 O          -3.2092   -1.4131   -3.5449 O.co2   1  LIG1       -0.5493
      2 O          -1.4782   -2.8286   -3.1124 O.co2   1  LIG1       -0.5493
      3 O          -3.5785    2.8085    2.3930 O.3     1  LIG1       -0.4526
      4 O           1.7409    0.7100   -3.3305 O.2     1  LIG1       -0.2697
      5 O          -5.9109    2.6356    1.7987 O.3     1  LIG1       -0.4526
      6 O           0.9615   -5.1598    2.6553 O.3     1  LIG1       -0.4951
      7 N           0.0650    0.1100   -0.9196 N.4     1  LIG1        0.2481
      8 N           3.4636   -0.5367   -2.4702 N.am    1  LIG1       -0.2971
      9 C          -1.9184   -1.0627   -1.6159 C.3     1  LIG1        0.0574
     10 C          -2.1414    0.4472   -1.7970 C.3     1  LIG1        0.0378
     11 C          -0.4316   -1.2860   -1.3120 C.3     1  LIG1        0.0143
     12 C          -0.7425    1.0450   -1.7821 C.3     1  LIG1       -0.0230
     13 C          -3.1287    1.0118   -0.7845 C.ar    1  LIG1       -0.0347
     14 C          -0.1090   -2.2887   -0.2043 C.ar    1  LIG1        0.0011
     15 C           1.5780    0.3080   -0.9697 C.3     1  LIG1        0.0468
     16 C          -2.2298   -1.8446   -2.8852 C.2     1  LIG1        0.0513
     17 C          -2.7634    1.6450    0.4129 C.ar    1  LIG1       -0.0125
     18 C           2.2592    0.1665   -2.3516 C.2     1  LIG1        0.2608
     19 C          -4.5079    0.8990   -1.1045 C.ar    1  LIG1       -0.0544
     20 C          -0.9291   -2.4957    0.9170 C.ar    1  LIG1       -0.0498
     21 C           1.0804   -3.0340   -0.2851 C.ar    1  LIG1       -0.0498
     22 C          -3.7681    2.1540    1.2146 C.ar    1  LIG1        0.1665
     23 C          -5.5011    1.4272   -0.2748 C.ar    1  LIG1       -0.0159
     24 C          -5.0968    2.0541    0.8792 C.ar    1  LIG1        0.1662
     25 C          -0.6009   -3.4572    1.8838 C.ar    1  LIG1       -0.0195
     26 C           1.4238   -3.9701    0.6921 C.ar    1  LIG1       -0.0195
     27 C           4.3449   -0.8081   -1.3250 C.3     1  LIG1        0.0148
     28 C           4.0832   -0.5736   -3.8114 C.3     1  LIG1        0.0148
     29 C           0.5650   -4.2083    1.7575 C.ar    1  LIG1        0.1201
     30 C           5.0707    0.4551   -0.8498 C.3     1  LIG1       -0.0374
     31 C           4.6201   -1.9353   -4.2738 C.3     1  LIG1       -0.0374
     32 C          -4.9437    3.1198    2.7510 C.3     1  LIG1        0.2332
     33 C           6.0604    0.1935    0.2859 C.3     1  LIG1       -0.0545
     34 C           3.5578   -2.9096   -4.7896 C.3     1  LIG1       -0.0545
     35 C           5.3915   -0.2459    1.5787 C.3     1  LIG1       -0.0652
     36 C           2.6349   -3.4430   -3.7124 C.3     1  LIG1       -0.0652
     37 C          -0.0797   -6.0687    3.0104 C.3     1  LIG1        0.0788
     38 H          -0.2331    0.2313    0.0513 H       1  LIG1        0.2045
     39 H          -2.5931   -1.4740   -0.8594 H       1  LIG1        0.0427
     40 H          -2.5536    0.7076   -2.7807 H       1  LIG1        0.0409
     41 H           0.1480   -1.5326   -2.2087 H       1  LIG1        0.0911
     42 H          -0.3497    1.0247   -2.7973 H       1  LIG1        0.0821
     43 H          -0.6614    2.0563   -1.3743 H       1  LIG1        0.0821
     44 H           1.9848   -0.3680   -0.2216 H       1  LIG1        0.0913
     45 H           1.7551    1.3305   -0.6177 H       1  LIG1        0.0913
     46 H          -1.7383    1.7732    0.7310 H       1  LIG1        0.0658
     47 H          -4.8072    0.3965   -2.0285 H       1  LIG1        0.0622
     48 H          -1.8567   -1.9444    1.0539 H       1  LIG1        0.0623
     49 H           1.7474   -2.9147   -1.1323 H       1  LIG1        0.0623
     50 H          -6.5497    1.3485   -0.5385 H       1  LIG1        0.0655
     51 H          -1.2697   -3.6070    2.7264 H       1  LIG1        0.0654
     52 H           2.3412   -4.5457    0.5972 H       1  LIG1        0.0654
     53 H           5.0724   -1.5757   -1.6003 H       1  LIG1        0.0464
     54 H           3.7512   -1.2377   -0.5169 H       1  LIG1        0.0464
     55 H           4.9104    0.1459   -3.7903 H       1  LIG1        0.0464
     56 H           3.3873   -0.2071   -4.5736 H       1  LIG1        0.0464
     57 H           4.3449    1.2146   -0.5361 H       1  LIG1        0.0280
     58 H           5.6247    0.8924   -1.6894 H       1  LIG1        0.0280
     59 H           5.2247   -2.4216   -3.5031 H       1  LIG1        0.0280
     60 H           5.3017   -1.7421   -5.1128 H       1  LIG1        0.0280
     61 H          -5.0440    4.2085    2.8317 H       1  LIG1        0.1166
     62 H          -5.1600    2.6732    3.7281 H       1  LIG1        0.1166
     63 H           6.6185    1.1176    0.4792 H       1  LIG1        0.0263
     64 H           6.7939   -0.5604   -0.0228 H       1  LIG1        0.0263
     65 H           4.0721   -3.7611   -5.2517 H       1  LIG1        0.0263
     66 H           2.9625   -2.4369   -5.5793 H       1  LIG1        0.0263
     67 H           4.6270    0.4731    1.8893 H       1  LIG1        0.0230
     68 H           6.1344   -0.3182    2.3794 H       1  LIG1        0.0230
     69 H           4.9213   -1.2279    1.4734 H       1  LIG1        0.0230
     70 H           3.2025   -3.8185   -2.8551 H       1  LIG1        0.0230
     71 H           2.0288   -4.2667   -4.1030 H       1  LIG1        0.0230
     72 H           1.9471   -2.6657   -3.3744 H       1  LIG1        0.0230
     73 H           0.3881   -6.9592    3.4418 H       1  LIG1        0.0660
     74 H          -0.6607   -6.3869    2.1369 H       1  LIG1        0.0660
     75 H          -0.7315   -5.6301    3.7719 H       1  LIG1        0.0660
@<TRIPOS>BOND
     1     1    16   ar
     2     2    16   ar
     3     3    22    1
     4     3    32    1
     5     4    18    2
     6     5    24    1
     7     5    32    1
     8     6    29    1
     9     6    37    1
    10     7    11    1
    11     7    12    1
    12     7    15    1
    13     8    18   am
    14     8    27    1
    15     8    28    1
    16     9    10    1
    17     9    11    1
    18     9    16    1
    19    10    12    1
    20    10    13    1
    21    11    14    1
    22    13    17   ar
    23    13    19   ar
    24    14    20   ar
    25    14    21   ar
    26    15    18    1
    27    17    22   ar
    28    19    23   ar
    29    20    25   ar
    30    21    26   ar
    31    22    24   ar
    32    23    24   ar
    33    25    29   ar
    34    26    29   ar
    35    27    30    1
    36    28    31    1
    37    30    33    1
    38    31    34    1
    39    33    35    1
    40    34    36    1
    41     7    38    1
    42     9    39    1
    43    10    40    1
    44    11    41    1
    45    12    42    1
    46    12    43    1
    47    15    44    1
    48    15    45    1
    49    17    46    1
    50    19    47    1
    51    20    48    1
    52    21    49    1
    53    23    50    1
    54    25    51    1
    55    26    52    1
    56    27    53    1
    57    27    54    1
    58    28    55    1
    59    28    56    1
    60    30    57    1
    61    30    58    1
    62    31    59    1
    63    31    60    1
    64    32    61    1
    65    32    62    1
    66    33    63    1
    67    33    64    1
    68    34    65    1
    69    34    66    1
    70    35    67    1
    71    35    68    1
    72    35    69    1
    73    36    70    1
    74    36    71    1
    75    36    72    1
    76    37    73    1
    77    37    74    1
    78    37    75    1
@<TRIPOS>MOLECULE
159594
 75 78 0 0 0
SMALL
GASTEIGER

@<TRIPOS>ATOM
      1 O          -1.5834   -1.2970   -3.8519 O.co2   1  LIG1       -0.5493
      2 O          -2.5714   -3.1267   -2.9048 O.co2   1  LIG1       -0.5493
      3 O          -6.4270    0.1009    1.2231 O.3     1  LIG1       -0.4526
      4 O           1.2039    2.0732    0.5734 O.2     1  LIG1       -0.2697
      5 O          -6.1916    2.4117    1.8706 O.3     1  LIG1       -0.4526
      6 O           1.1351   -5.4037    2.4163 O.3     1  LIG1       -0.4951
      7 N          -0.1734    0.0576   -0.9540 N.4     1  LIG1        0.2481
      8 N           2.1392    2.7804   -1.4081 N.am    1  LIG1       -0.2971
      9 C          -2.0540   -1.2842   -1.5523 C.3     1  LIG1        0.0574
     10 C          -2.4274    0.2023   -1.7437 C.3     1  LIG1        0.0378
     11 C          -0.5475   -1.3773   -1.2785 C.3     1  LIG1        0.0143
     12 C          -1.0525    0.8525   -1.8844 C.3     1  LIG1       -0.0230
     13 C          -3.3358    0.8110   -0.6700 C.ar    1  LIG1       -0.0347
     14 C          -0.1580   -2.4207   -0.2411 C.ar    1  LIG1        0.0011
     15 C           1.2892    0.3987   -1.1065 C.3     1  LIG1        0.0468
     16 C          -2.0993   -1.9643   -2.9120 C.2     1  LIG1        0.0513
     17 C          -4.4243    0.0674   -0.1718 C.ar    1  LIG1       -0.0125
     18 C           1.5591    1.8201   -0.5845 C.2     1  LIG1        0.2608
     19 C          -3.2406    2.1767   -0.2887 C.ar    1  LIG1       -0.0544
     20 C          -0.1910   -3.7728   -0.6354 C.ar    1  LIG1       -0.0498
     21 C           0.2734   -2.1353    1.0605 C.ar    1  LIG1       -0.0498
     22 C          -5.3200    0.6797    0.6848 C.ar    1  LIG1        0.1665
     23 C          -4.1586    2.7696    0.5869 C.ar    1  LIG1       -0.0159
     24 C          -5.1896    1.9939    1.0545 C.ar    1  LIG1        0.1662
     25 C           0.2183   -4.8009    0.2196 C.ar    1  LIG1       -0.0195
     26 C           0.6927   -3.1679    1.9122 C.ar    1  LIG1       -0.0195
     27 C           2.4664    4.0786   -0.8055 C.3     1  LIG1        0.0148
     28 C           2.0360    2.7705   -2.8780 C.3     1  LIG1        0.0148
     29 C           0.6791   -4.5012    1.4956 C.ar    1  LIG1        0.1201
     30 C           3.5412    4.0450    0.2888 C.3     1  LIG1       -0.0374
     31 C           0.8589    3.6252   -3.3724 C.3     1  LIG1       -0.0374
     32 C          -6.9953    1.2157    1.9413 C.3     1  LIG1        0.2332
     33 C           4.9412    3.6609   -0.1969 C.3     1  LIG1       -0.0545
     34 C           0.3882    3.2665   -4.7818 C.3     1  LIG1       -0.0545
     35 C           5.1335    2.1666   -0.4042 C.3     1  LIG1       -0.0652
     36 C           1.4370    3.5235   -5.8503 C.3     1  LIG1       -0.0652
     37 C           1.2109   -6.7620    1.9945 C.3     1  LIG1        0.0788
     38 H          -0.4636    0.2763    0.0083 H       1  LIG1        0.2045
     39 H          -2.6555   -1.8231   -0.8159 H       1  LIG1        0.0427
     40 H          -2.9855    0.3688   -2.6757 H       1  LIG1        0.0409
     41 H           0.0647   -1.6125   -2.1616 H       1  LIG1        0.0911
     42 H          -0.6400    0.7496   -2.8934 H       1  LIG1        0.0821
     43 H          -0.9827    1.8963   -1.5917 H       1  LIG1        0.0821
     44 H           1.5798    0.2160   -2.1387 H       1  LIG1        0.0913
     45 H           1.8575   -0.2896   -0.4723 H       1  LIG1        0.0913
     46 H          -4.6142   -0.9573   -0.4787 H       1  LIG1        0.0658
     47 H          -2.4845    2.8408   -0.6959 H       1  LIG1        0.0622
     48 H          -0.5424   -4.0501   -1.6320 H       1  LIG1        0.0623
     49 H           0.3124   -1.1225    1.4490 H       1  LIG1        0.0623
     50 H          -4.0829    3.8169    0.8580 H       1  LIG1        0.0655
     51 H           0.1602   -5.8193   -0.1516 H       1  LIG1        0.0654
     52 H           1.0408   -2.9309    2.9154 H       1  LIG1        0.0654
     53 H           1.5387    4.4925   -0.3912 H       1  LIG1        0.0464
     54 H           2.8017    4.7642   -1.5930 H       1  LIG1        0.0464
     55 H           1.9296    1.7526   -3.2489 H       1  LIG1        0.0464
     56 H           2.9814    3.1538   -3.2796 H       1  LIG1        0.0464
     57 H           3.2461    3.3977    1.1210 H       1  LIG1        0.0280
     58 H           3.6045    5.0599    0.7029 H       1  LIG1        0.0280
     59 H           1.1346    4.6863   -3.3374 H       1  LIG1        0.0280
     60 H           0.0066    3.5181   -2.6935 H       1  LIG1        0.0280
     61 H          -7.1113    0.9347    2.9936 H       1  LIG1        0.1166
     62 H          -7.9848    1.4346    1.5231 H       1  LIG1        0.1166
     63 H           5.6624    3.9883    0.5621 H       1  LIG1        0.0263
     64 H           5.1888    4.1999   -1.1183 H       1  LIG1        0.0263
     65 H          -0.5035    3.8612   -5.0138 H       1  LIG1        0.0263
     66 H           0.0819    2.2145   -4.8166 H       1  LIG1        0.0263
     67 H           4.8087    1.6006    0.4747 H       1  LIG1        0.0230
     68 H           6.1926    1.9466   -0.5733 H       1  LIG1        0.0230
     69 H           4.5834    1.8038   -1.2753 H       1  LIG1        0.0230
     70 H           1.7581    4.5697   -5.8398 H       1  LIG1        0.0230
     71 H           1.0237    3.3057   -6.8403 H       1  LIG1        0.0230
     72 H           2.3164    2.8889   -5.7077 H       1  LIG1        0.0230
     73 H           1.6381   -7.3452    2.8156 H       1  LIG1        0.0660
     74 H           1.8744   -6.8728    1.1298 H       1  LIG1        0.0660
     75 H           0.2148   -7.1645    1.7824 H       1  LIG1        0.0660
@<TRIPOS>BOND
     1     1    16   ar
     2     2    16   ar
     3     3    22    1
     4     3    32    1
     5     4    18    2
     6     5    24    1
     7     5    32    1
     8     6    29    1
     9     6    37    1
    10     7    11    1
    11     7    12    1
    12     7    15    1
    13     8    18   am
    14     8    27    1
    15     8    28    1
    16     9    10    1
    17     9    11    1
    18     9    16    1
    19    10    12    1
    20    10    13    1
    21    11    14    1
    22    13    17   ar
    23    13    19   ar
    24    14    20   ar
    25    14    21   ar
    26    15    18    1
    27    17    22   ar
    28    19    23   ar
    29    20    25   ar
    30    21    26   ar
    31    22    24   ar
    32    23    24   ar
    33    25    29   ar
    34    26    29   ar
    35    27    30    1
    36    28    31    1
    37    30    33    1
    38    31    34    1
    39    33    35    1
    40    34    36    1
    41     7    38    1
    42     9    39    1
    43    10    40    1
    44    11    41    1
    45    12    42    1
    46    12    43    1
    47    15    44    1
    48    15    45    1
    49    17    46    1
    50    19    47    1
    51    20    48    1
    52    21    49    1
    53    23    50    1
    54    25    51    1
    55    26    52    1
    56    27    53    1
    57    27    54    1
    58    28    55    1
    59    28    56    1
    60    30    57    1
    61    30    58    1
    62    31    59    1
    63    31    60    1
    64    32    61    1
    65    32    62    1
    66    33    63    1
    67    33    64    1
    68    34    65    1
    69    34    66    1
    70    35    67    1
    71    35    68    1
    72    35    69    1
    73    36    70    1
    74    36    71    1
    75    36    72    1
    76    37    73    1
    77    37    74    1
    78    37    75    1
@<TRIPOS>MOLECULE
159594
 75 78 0 0 0
SMALL
GASTEIGER

@<TRIPOS>ATOM
      1 O          -1.4775   -1.3807   -3.8578 O.co2   1  LIG1       -0.5493
      2 O          -2.3390   -3.2164   -2.8038 O.co2   1  LIG1       -0.5493
      3 O          -6.2959    0.2513    1.0381 O.3     1  LIG1       -0.4526
      4 O           1.3525    1.7784    0.6071 O.2     1  LIG1       -0.2697
      5 O          -5.9824    2.5373    1.7370 O.3     1  LIG1       -0.4526
      6 O           1.0917   -5.4964    2.4521 O.3     1  LIG1       -0.4951
      7 N           0.0595   -0.0425   -0.9795 N.4     1  LIG1        0.2481
      8 N           2.9852    2.2578   -0.9700 N.am    1  LIG1       -0.2971
      9 C          -1.8966   -1.2898   -1.5523 C.3     1  LIG1        0.0574
     10 C          -2.1882    0.2109   -1.7723 C.3     1  LIG1        0.0378
     11 C          -0.4004   -1.4546   -1.2847 C.3     1  LIG1        0.0143
     12 C          -0.7804    0.8011   -1.9049 C.3     1  LIG1       -0.0230
     13 C          -3.1037    0.8528   -0.7249 C.ar    1  LIG1       -0.0347
     14 C          -0.0498   -2.4705   -0.2118 C.ar    1  LIG1        0.0011
     15 C           1.5445    0.1800   -1.1401 C.3     1  LIG1        0.0468
     16 C          -1.9397   -2.0285   -2.8792 C.2     1  LIG1        0.0513
     17 C          -4.2477    0.1546   -0.2845 C.ar    1  LIG1       -0.0125
     18 C           1.9651    1.4746   -0.4224 C.2     1  LIG1        0.2608
     19 C          -2.9575    2.2031   -0.3140 C.ar    1  LIG1       -0.0544
     20 C          -0.0647   -2.2007    1.1636 C.ar    1  LIG1       -0.0498
     21 C           0.3040   -3.7661   -0.6270 C.ar    1  LIG1       -0.0498
     22 C          -5.1467    0.7899    0.5501 C.ar    1  LIG1        0.1665
     23 C          -3.8856    2.8234    0.5338 C.ar    1  LIG1       -0.0159
     24 C          -4.9702    2.0898    0.9486 C.ar    1  LIG1        0.1662
     25 C           0.3130   -3.1851    2.0918 C.ar    1  LIG1       -0.0195
     26 C           0.6782   -4.7418    0.2976 C.ar    1  LIG1       -0.0195
     27 C           3.8421    1.7115   -2.0403 C.3     1  LIG1        0.0148
     28 C           3.4201    3.4290   -0.1938 C.3     1  LIG1        0.0148
     29 C           0.6937   -4.4567    1.6607 C.ar    1  LIG1        0.1201
     30 C           5.0379    2.5383   -2.5194 C.3     1  LIG1       -0.0374
     31 C           2.3655    4.5258    0.0330 C.3     1  LIG1       -0.0374
     32 C          -6.8346    1.3737    1.7662 C.3     1  LIG1        0.2332
     33 C           5.8641    1.8284   -3.5985 C.3     1  LIG1       -0.0545
     34 C           1.8767    5.2301   -1.2352 C.3     1  LIG1       -0.0545
     35 C           5.1096    1.5916   -4.8973 C.3     1  LIG1       -0.0652
     36 C           0.7856    4.4720   -1.9737 C.3     1  LIG1       -0.0652
     37 C           1.0319   -5.3014    3.8588 C.3     1  LIG1        0.0788
     38 H          -0.1916    0.2124   -0.0148 H       1  LIG1        0.2045
     39 H          -2.5196   -1.7828   -0.8012 H       1  LIG1        0.0427
     40 H          -2.7213    0.3890   -2.7161 H       1  LIG1        0.0409
     41 H           0.1966   -1.7258   -2.1685 H       1  LIG1        0.0911
     42 H          -0.3785    0.6779   -2.9171 H       1  LIG1        0.0821
     43 H          -0.6553    1.8422   -1.6136 H       1  LIG1        0.0821
     44 H           1.7557    0.1781   -2.2093 H       1  LIG1        0.0913
     45 H           2.0657   -0.6507   -0.6538 H       1  LIG1        0.0913
     46 H          -4.4721   -0.8557   -0.6192 H       1  LIG1        0.0658
     47 H          -2.1493    2.8314   -0.6747 H       1  LIG1        0.0622
     48 H          -0.3770   -1.2344    1.5505 H       1  LIG1        0.0623
     49 H           0.2693   -4.0381   -1.6838 H       1  LIG1        0.0623
     50 H          -3.7733    3.8619    0.8276 H       1  LIG1        0.0655
     51 H           0.2936   -2.9290    3.1454 H       1  LIG1        0.0654
     52 H           0.9433   -5.7374   -0.0517 H       1  LIG1        0.0654
     53 H           3.1797    1.5396   -2.8943 H       1  LIG1        0.0464
     54 H           4.1965    0.7315   -1.6975 H       1  LIG1        0.0464
     55 H           4.2772    3.9100   -0.6660 H       1  LIG1        0.0464
     56 H           3.7634    3.0576    0.7794 H       1  LIG1        0.0464
     57 H           5.7109    2.7333   -1.6763 H       1  LIG1        0.0280
     58 H           4.6960    3.5084   -2.8988 H       1  LIG1        0.0280
     59 H           2.8395    5.2877    0.6668 H       1  LIG1        0.0280
     60 H           1.5114    4.1580    0.6086 H       1  LIG1        0.0280
     61 H          -6.9847    1.0764    2.8102 H       1  LIG1        0.1166
     62 H          -7.8065    1.6395    1.3331 H       1  LIG1        0.1166
     63 H           6.2320    0.8702   -3.2133 H       1  LIG1        0.0263
     64 H           6.7474    2.4406   -3.8159 H       1  LIG1        0.0263
     65 H           2.7142    5.4350   -1.9109 H       1  LIG1        0.0263
     66 H           1.4625    6.2024   -0.9421 H       1  LIG1        0.0263
     67 H           4.2945    0.8745   -4.7640 H       1  LIG1        0.0230
     68 H           5.7868    1.1815   -5.6543 H       1  LIG1        0.0230
     69 H           4.6920    2.5254   -5.2864 H       1  LIG1        0.0230
     70 H           1.1660    3.5561   -2.4315 H       1  LIG1        0.0230
     71 H           0.3739    5.0930   -2.7754 H       1  LIG1        0.0230
     72 H          -0.0354    4.2122   -1.2982 H       1  LIG1        0.0230
     73 H           1.3388   -6.2356    4.3378 H       1  LIG1        0.0660
     74 H           0.0103   -5.0792    4.1838 H       1  LIG1        0.0660
     75 H           1.7282   -4.5190    4.1760 H       1  LIG1        0.0660
@<TRIPOS>BOND
     1     1    16   ar
     2     2    16   ar
     3     3    22    1
     4     3    32    1
     5     4    18    2
     6     5    24    1
     7     5    32    1
     8     6    29    1
     9     6    37    1
    10     7    11    1
    11     7    12    1
    12     7    15    1
    13     8    18   am
    14     8    27    1
    15     8    28    1
    16     9    10    1
    17     9    11    1
    18     9    16    1
    19    10    12    1
    20    10    13    1
    21    11    14    1
    22    13    17   ar
    23    13    19   ar
    24    14    20   ar
    25    14    21   ar
    26    15    18    1
    27    17    22   ar
    28    19    23   ar
    29    20    25   ar
    30    21    26   ar
    31    22    24   ar
    32    23    24   ar
    33    25    29   ar
    34    26    29   ar
    35    27    30    1
    36    28    31    1
    37    30    33    1
    38    31    34    1
    39    33    35    1
    40    34    36    1
    41     7    38    1
    42     9    39    1
    43    10    40    1
    44    11    41    1
    45    12    42    1
    46    12    43    1
    47    15    44    1
    48    15    45    1
    49    17    46    1
    50    19    47    1
    51    20    48    1
    52    21    49    1
    53    23    50    1
    54    25    51    1
    55    26    52    1
    56    27    53    1
    57    27    54    1
    58    28    55    1
    59    28    56    1
    60    30    57    1
    61    30    58    1
    62    31    59    1
    63    31    60    1
    64    32    61    1
    65    32    62    1
    66    33    63    1
    67    33    64    1
    68    34    65    1
    69    34    66    1
    70    35    67    1
    71    35    68    1
    72    35    69    1
    73    36    70    1
    74    36    71    1
    75    36    72    1
    76    37    73    1
    77    37    74    1
    78    37    75    1
@<TRIPOS>MOLECULE
159594
 75 78 0 0 0
SMALL
GASTEIGER

@<TRIPOS>ATOM
      1 O          -1.3746   -1.3528   -3.8203 O.co2   1  LIG1       -0.5493
      2 O          -2.5457   -3.0662   -2.8689 O.co2   1  LIG1       -0.5493
      3 O          -3.4880    2.7989    2.3407 O.3     1  LIG1       -0.4526
      4 O           1.4363    1.7101    0.6490 O.2     1  LIG1       -0.2697
      5 O          -5.8336    2.6248    1.8039 O.3     1  LIG1       -0.4526
      6 O           0.9318   -5.5704    2.4694 O.3     1  LIG1       -0.4951
      7 N           0.0757   -0.0245   -0.9563 N.4     1  LIG1        0.2481
      8 N           3.0066    2.2555   -0.9694 N.am    1  LIG1       -0.2971
      9 C          -1.8987   -1.2499   -1.5372 C.3     1  LIG1        0.0574
     10 C          -2.1644    0.2414   -1.7700 C.3     1  LIG1        0.0378
     11 C          -0.4088   -1.4351   -1.2411 C.3     1  LIG1        0.0143
     12 C          -0.7747    0.8601   -1.8350 C.3     1  LIG1       -0.0230
     13 C          -3.1254    0.8401   -0.7524 C.ar    1  LIG1       -0.0347
     14 C          -0.0998   -2.4564   -0.1511 C.ar    1  LIG1        0.0011
     15 C           1.5572    0.1907   -1.1720 C.3     1  LIG1        0.0468
     16 C          -1.9698   -1.9532   -2.8821 C.2     1  LIG1        0.0513
     17 C          -2.7270    1.5261    0.4055 C.ar    1  LIG1       -0.0125
     18 C           2.0091    1.4507   -0.4155 C.2     1  LIG1        0.2608
     19 C          -4.5132    0.7266   -1.0351 C.ar    1  LIG1       -0.0544
     20 C           0.3882   -2.1418    1.1273 C.ar    1  LIG1       -0.0498
     21 C          -0.2556   -3.8173   -0.4699 C.ar    1  LIG1       -0.0498
     22 C          -3.7086    2.0854    1.2029 C.ar    1  LIG1        0.1665
     23 C          -5.4817    1.3071   -0.2116 C.ar    1  LIG1       -0.0159
     24 C          -5.0452    1.9855    0.9007 C.ar    1  LIG1        0.1662
     25 C           0.7427   -3.1534    2.0356 C.ar    1  LIG1       -0.0195
     26 C           0.0906   -4.8201    0.4387 C.ar    1  LIG1       -0.0195
     27 C           3.8306    1.7506   -2.0845 C.3     1  LIG1        0.0148
     28 C           3.4301    3.4333   -0.1971 C.3     1  LIG1        0.0148
     29 C           0.6069   -4.4965    1.6902 C.ar    1  LIG1        0.1201
     30 C           5.0561    2.5572   -2.5188 C.3     1  LIG1       -0.0374
     31 C           2.3548    4.5047    0.0495 C.3     1  LIG1       -0.0374
     32 C          -4.8415    3.1341    2.7170 C.3     1  LIG1        0.2332
     33 C           5.8850    1.8546   -3.6003 C.3     1  LIG1       -0.0545
     34 C           1.8499    5.2173   -1.2076 C.3     1  LIG1       -0.0545
     35 C           5.1361    1.6287   -4.9042 C.3     1  LIG1       -0.0652
     36 C           0.7532    4.4609   -1.9390 C.3     1  LIG1       -0.0652
     37 C           1.5790   -5.3020    3.7055 C.3     1  LIG1        0.0788
     38 H          -0.1395    0.2154    0.0183 H       1  LIG1        0.2045
     39 H          -2.5660   -1.7107   -0.8007 H       1  LIG1        0.0427
     40 H          -2.6365    0.4380   -2.7431 H       1  LIG1        0.0409
     41 H           0.1965   -1.7487   -2.1039 H       1  LIG1        0.0911
     42 H          -0.3598    0.8159   -2.8480 H       1  LIG1        0.0821
     43 H          -0.7100    1.8853   -1.4642 H       1  LIG1        0.0821
     44 H           1.7264    0.2358   -2.2481 H       1  LIG1        0.0913
     45 H           2.0924   -0.6634   -0.7466 H       1  LIG1        0.0913
     46 H          -1.6927    1.6605    0.6952 H       1  LIG1        0.0658
     47 H          -4.8435    0.1889   -1.9259 H       1  LIG1        0.0622
     48 H           0.5225   -1.1167    1.4592 H       1  LIG1        0.0623
     49 H          -0.6482   -4.1208   -1.4427 H       1  LIG1        0.0623
     50 H          -6.5376    1.2306   -0.4465 H       1  LIG1        0.0655
     51 H           1.1230   -2.8569    3.0082 H       1  LIG1        0.0654
     52 H          -0.0402   -5.8631    0.1577 H       1  LIG1        0.0654
     53 H           3.1522    1.6596   -2.9394 H       1  LIG1        0.0464
     54 H           4.1498    0.7372   -1.8113 H       1  LIG1        0.0464
     55 H           4.2712    3.9329   -0.6798 H       1  LIG1        0.0464
     56 H           3.7943    3.0653    0.7699 H       1  LIG1        0.0464
     57 H           5.7175    2.7160   -1.6588 H       1  LIG1        0.0280
     58 H           4.7448    3.5444   -2.8810 H       1  LIG1        0.0280
     59 H           2.8158    5.2663    0.6928 H       1  LIG1        0.0280
     60 H           1.5092    4.1103    0.6211 H       1  LIG1        0.0280
     61 H          -4.9321    4.2258    2.7604 H       1  LIG1        0.1166
     62 H          -5.0404    2.7250    3.7141 H       1  LIG1        0.1166
     63 H           6.2476    0.8920   -3.2206 H       1  LIG1        0.0263
     64 H           6.7718    2.4654   -3.8080 H       1  LIG1        0.0263
     65 H           2.6789    5.4307   -1.8911 H       1  LIG1        0.0263
     66 H           1.4354    6.1866   -0.9031 H       1  LIG1        0.0263
     67 H           4.3192    0.9119   -4.7786 H       1  LIG1        0.0230
     68 H           5.8156    1.2225   -5.6607 H       1  LIG1        0.0230
     69 H           4.7216    2.5657   -5.2884 H       1  LIG1        0.0230
     70 H           1.1278    3.5408   -2.3928 H       1  LIG1        0.0230
     71 H           0.3415    5.0802   -2.7424 H       1  LIG1        0.0230
     72 H          -0.0671    4.2086   -1.2594 H       1  LIG1        0.0230
     73 H           1.8169   -6.2625    4.1731 H       1  LIG1        0.0660
     74 H           0.9182   -4.7545    4.3849 H       1  LIG1        0.0660
     75 H           2.5210   -4.7653    3.5508 H       1  LIG1        0.0660
@<TRIPOS>BOND
     1     1    16   ar
     2     2    16   ar
     3     3    22    1
     4     3    32    1
     5     4    18    2
     6     5    24    1
     7     5    32    1
     8     6    29    1
     9     6    37    1
    10     7    11    1
    11     7    12    1
    12     7    15    1
    13     8    18   am
    14     8    27    1
    15     8    28    1
    16     9    10    1
    17     9    11    1
    18     9    16    1
    19    10    12    1
    20    10    13    1
    21    11    14    1
    22    13    17   ar
    23    13    19   ar
    24    14    20   ar
    25    14    21   ar
    26    15    18    1
    27    17    22   ar
    28    19    23   ar
    29    20    25   ar
    30    21    26   ar
    31    22    24   ar
    32    23    24   ar
    33    25    29   ar
    34    26    29   ar
    35    27    30    1
    36    28    31    1
    37    30    33    1
    38    31    34    1
    39    33    35    1
    40    34    36    1
    41     7    38    1
    42     9    39    1
    43    10    40    1
    44    11    41    1
    45    12    42    1
    46    12    43    1
    47    15    44    1
    48    15    45    1
    49    17    46    1
    50    19    47    1
    51    20    48    1
    52    21    49    1
    53    23    50    1
    54    25    51    1
    55    26    52    1
    56    27    53    1
    57    27    54    1
    58    28    55    1
    59    28    56    1
    60    30    57    1
    61    30    58    1
    62    31    59    1
    63    31    60    1
    64    32    61    1
    65    32    62    1
    66    33    63    1
    67    33    64    1
    68    34    65    1
    69    34    66    1
    70    35    67    1
    71    35    68    1
    72    35    69    1
    73    36    70    1
    74    36    71    1
    75    36    72    1
    76    37    73    1
    77    37    74    1
    78    37    75    1
@<TRIPOS>MOLECULE
159594
 75 78 0 0 0
SMALL
GASTEIGER

@<TRIPOS>ATOM
      1 O          -3.0244   -2.9809   -2.5523 O.co2   1  LIG1       -0.5493
      2 O          -1.7671   -1.5202   -3.7831 O.co2   1  LIG1       -0.5493
      3 O          -3.9314    4.1295    0.9509 O.3     1  LIG1       -0.4526
      4 O           2.1187   -0.7516   -3.0751 O.2     1  LIG1       -0.2697
      5 O          -5.8616    2.9038    1.7179 O.3     1  LIG1       -0.4526
      6 O           0.9393   -5.4899    2.4233 O.3     1  LIG1       -0.4951
      7 N           0.0011    0.0577   -1.0114 N.4     1  LIG1        0.2481
      8 N           2.7765    1.4467   -3.0044 N.am    1  LIG1       -0.2971
      9 C          -1.9516   -1.2129   -1.4700 C.3     1  LIG1        0.0574
     10 C          -2.2594    0.2695   -1.7745 C.3     1  LIG1        0.0378
     11 C          -0.4328   -1.3803   -1.3266 C.3     1  LIG1        0.0143
     12 C          -0.8591    0.8498   -1.9704 C.3     1  LIG1       -0.0230
     13 C          -3.1598    0.9403   -0.7327 C.ar    1  LIG1       -0.0347
     14 C          -0.0707   -2.4402   -0.2886 C.ar    1  LIG1        0.0011
     15 C           1.4820    0.3957   -1.0868 C.3     1  LIG1        0.0468
     16 C          -2.2828   -1.9841   -2.7311 C.2     1  LIG1        0.0513
     17 C          -2.9926    2.2766   -0.3250 C.ar    1  LIG1       -0.0125
     18 C           2.1465    0.3221   -2.4699 C.2     1  LIG1        0.2608
     19 C          -4.3214    0.2514   -0.2890 C.ar    1  LIG1       -0.0544
     20 C          -0.3723   -3.7824   -0.5942 C.ar    1  LIG1       -0.0498
     21 C           0.5452   -2.1863    0.9432 C.ar    1  LIG1       -0.0498
     22 C          -3.9429    2.8428    0.5048 C.ar    1  LIG1        0.1665
     23 C          -5.2589    0.8457    0.5642 C.ar    1  LIG1       -0.0159
     24 C          -5.0429    2.1495    0.9400 C.ar    1  LIG1        0.1662
     25 C          -0.0709   -4.8287    0.2840 C.ar    1  LIG1       -0.0195
     26 C           0.8720   -3.2397    1.8109 C.ar    1  LIG1       -0.0195
     27 C           2.9857    2.7263   -2.3095 C.3     1  LIG1        0.0148
     28 C           3.3485    1.3177   -4.3550 C.3     1  LIG1        0.0148
     29 C           0.5665   -4.5634    1.4892 C.ar    1  LIG1        0.1201
     30 C           1.7907    3.6834   -2.3343 C.3     1  LIG1       -0.0374
     31 C           4.8810    1.3656   -4.4356 C.3     1  LIG1       -0.0374
     32 C          -5.1847    4.1761    1.6687 C.3     1  LIG1        0.2332
     33 C           1.3494    4.1696   -3.7154 C.3     1  LIG1       -0.0545
     34 C           5.6176    0.2075   -3.7602 C.3     1  LIG1       -0.0545
     35 C           2.3896    5.0311   -4.4154 C.3     1  LIG1       -0.0652
     36 C           5.7704    0.3625   -2.2555 C.3     1  LIG1       -0.0652
     37 C           0.6145   -6.8468    2.1387 C.3     1  LIG1        0.0788
     38 H          -0.3395    0.2439   -0.0636 H       1  LIG1        0.2045
     39 H          -2.4893   -1.6109   -0.6040 H       1  LIG1        0.0427
     40 H          -2.8138    0.4107   -2.7132 H       1  LIG1        0.0409
     41 H           0.0797   -1.6542   -2.2544 H       1  LIG1        0.0911
     42 H          -0.4823    0.6730   -2.9829 H       1  LIG1        0.0821
     43 H          -0.7493    1.9042   -1.7290 H       1  LIG1        0.0821
     44 H           2.0161   -0.2950   -0.4287 H       1  LIG1        0.0913
     45 H           1.5626    1.3846   -0.6373 H       1  LIG1        0.0913
     46 H          -2.1888    2.9127   -0.6699 H       1  LIG1        0.0658
     47 H          -4.5322   -0.7600   -0.6440 H       1  LIG1        0.0622
     48 H          -0.8662   -4.0395   -1.5343 H       1  LIG1        0.0623
     49 H           0.7946   -1.1828    1.2720 H       1  LIG1        0.0623
     50 H          -6.1441    0.3070    0.8842 H       1  LIG1        0.0655
     51 H          -0.3511   -5.8338   -0.0155 H       1  LIG1        0.0654
     52 H           1.3683   -3.0279    2.7550 H       1  LIG1        0.0654
     53 H           3.8686    3.2274   -2.7172 H       1  LIG1        0.0464
     54 H           3.2369    2.5012   -1.2668 H       1  LIG1        0.0464
     55 H           2.9411    2.1335   -4.9605 H       1  LIG1        0.0464
     56 H           3.0014    0.3968   -4.8356 H       1  LIG1        0.0464
     57 H           2.0395    4.5575   -1.7188 H       1  LIG1        0.0280
     58 H           0.9337    3.2131   -1.8502 H       1  LIG1        0.0280
     59 H           5.2678    2.3199   -4.0637 H       1  LIG1        0.0280
     60 H           5.1395    1.3393   -5.5031 H       1  LIG1        0.0280
     61 H          -5.8411    4.9055    1.1805 H       1  LIG1        0.1166
     62 H          -4.9883    4.5097    2.6940 H       1  LIG1        0.1166
     63 H           0.4375    4.7678   -3.5935 H       1  LIG1        0.0263
     64 H           1.0739    3.3213   -4.3509 H       1  LIG1        0.0263
     65 H           6.6257    0.1583   -4.1892 H       1  LIG1        0.0263
     66 H           5.1312   -0.7472   -3.9937 H       1  LIG1        0.0263
     67 H           2.6515    5.9005   -3.8045 H       1  LIG1        0.0230
     68 H           1.9948    5.3953   -5.3691 H       1  LIG1        0.0230
     69 H           3.3056    4.4733   -4.6266 H       1  LIG1        0.0230
     70 H           6.1666    1.3483   -1.9963 H       1  LIG1        0.0230
     71 H           6.4667   -0.3912   -1.8717 H       1  LIG1        0.0230
     72 H           4.8225    0.2218   -1.7319 H       1  LIG1        0.0230
     73 H           0.9965   -7.4617    2.9601 H       1  LIG1        0.0660
     74 H           1.0988   -7.1879    1.2182 H       1  LIG1        0.0660
     75 H          -0.4700   -6.9892    2.0919 H       1  LIG1        0.0660
@<TRIPOS>BOND
     1     1    16   ar
     2     2    16   ar
     3     3    22    1
     4     3    32    1
     5     4    18    2
     6     5    24    1
     7     5    32    1
     8     6    29    1
     9     6    37    1
    10     7    11    1
    11     7    12    1
    12     7    15    1
    13     8    18   am
    14     8    27    1
    15     8    28    1
    16     9    10    1
    17     9    11    1
    18     9    16    1
    19    10    12    1
    20    10    13    1
    21    11    14    1
    22    13    17   ar
    23    13    19   ar
    24    14    20   ar
    25    14    21   ar
    26    15    18    1
    27    17    22   ar
    28    19    23   ar
    29    20    25   ar
    30    21    26   ar
    31    22    24   ar
    32    23    24   ar
    33    25    29   ar
    34    26    29   ar
    35    27    30    1
    36    28    31    1
    37    30    33    1
    38    31    34    1
    39    33    35    1
    40    34    36    1
    41     7    38    1
    42     9    39    1
    43    10    40    1
    44    11    41    1
    45    12    42    1
    46    12    43    1
    47    15    44    1
    48    15    45    1
    49    17    46    1
    50    19    47    1
    51    20    48    1
    52    21    49    1
    53    23    50    1
    54    25    51    1
    55    26    52    1
    56    27    53    1
    57    27    54    1
    58    28    55    1
    59    28    56    1
    60    30    57    1
    61    30    58    1
    62    31    59    1
    63    31    60    1
    64    32    61    1
    65    32    62    1
    66    33    63    1
    67    33    64    1
    68    34    65    1
    69    34    66    1
    70    35    67    1
    71    35    68    1
    72    35    69    1
    73    36    70    1
    74    36    71    1
    75    36    72    1
    76    37    73    1
    77    37    74    1
    78    37    75    1
@<TRIPOS>MOLECULE
159594
 75 78 0 0 0
SMALL
GASTEIGER

@<TRIPOS>ATOM
      1 O          -1.8492   -1.1412   -4.0283 O.co2   1  LIG1       -0.5493
      2 O          -2.1518   -3.1400   -2.9688 O.co2   1  LIG1       -0.5493
      3 O          -5.3480    0.3533    2.2807 O.3     1  LIG1       -0.4526
      4 O           1.4635    1.3257   -3.2891 O.2     1  LIG1       -0.2697
      5 O          -5.9415    2.6648    1.9435 O.3     1  LIG1       -0.4526
      6 O           0.8716   -5.3075    2.3454 O.3     1  LIG1       -0.4951
      7 N          -0.1373    0.1283   -1.0412 N.4     1  LIG1        0.2481
      8 N           3.3853    0.2996   -2.5461 N.am    1  LIG1       -0.2971
      9 C          -2.0398   -1.1819   -1.6899 C.3     1  LIG1        0.0574
     10 C          -2.4020    0.3097   -1.7943 C.3     1  LIG1        0.0378
     11 C          -0.5254   -1.2877   -1.4644 C.3     1  LIG1        0.0143
     12 C          -1.0291    0.9876   -1.9098 C.3     1  LIG1       -0.0230
     13 C          -3.2639    0.9444   -0.7014 C.ar    1  LIG1       -0.0347
     14 C          -0.1368   -2.3356   -0.4314 C.ar    1  LIG1        0.0011
     15 C           1.3556    0.4309   -1.0505 C.3     1  LIG1        0.0468
     16 C          -2.0519   -1.8887   -3.0366 C.2     1  LIG1        0.0513
     17 C          -3.8126    0.2412    0.3830 C.ar    1  LIG1       -0.0125
     18 C           2.0482    0.7080   -2.3999 C.2     1  LIG1        0.2608
     19 C          -3.6311    2.3103   -0.8729 C.ar    1  LIG1       -0.0544
     20 C           0.5232   -3.4961   -0.8702 C.ar    1  LIG1       -0.0498
     21 C          -0.4481   -2.2279    0.9312 C.ar    1  LIG1       -0.0498
     22 C          -4.6945    0.9042    1.2205 C.ar    1  LIG1        0.1665
     23 C          -4.5098    2.9594   -0.0000 C.ar    1  LIG1       -0.0159
     24 C          -5.0349    2.2221    1.0328 C.ar    1  LIG1        0.1662
     25 C           0.8854   -4.5098    0.0229 C.ar    1  LIG1       -0.0195
     26 C          -0.0789   -3.2421    1.8231 C.ar    1  LIG1       -0.0195
     27 C           4.3161    0.4816   -1.4243 C.3     1  LIG1        0.0148
     28 C           3.9958    0.4666   -3.8815 C.3     1  LIG1        0.0148
     29 C           0.5817   -4.3883    1.3752 C.ar    1  LIG1        0.1201
     30 C           4.6230   -0.7563   -0.5781 C.3     1  LIG1       -0.0374
     31 C           3.2736   -0.2458   -5.0343 C.3     1  LIG1       -0.0374
     32 C          -6.2089    1.4463    2.6672 C.3     1  LIG1        0.2332
     33 C           5.2974   -1.9156   -1.3109 C.3     1  LIG1       -0.0545
     34 C           4.1142   -0.3105   -6.3159 C.3     1  LIG1       -0.0545
     35 C           4.3171   -2.8183   -2.0405 C.3     1  LIG1       -0.0652
     36 C           4.4854    1.0557   -6.8747 C.3     1  LIG1       -0.0652
     37 C           1.2545   -6.6032    1.8948 C.3     1  LIG1        0.0788
     38 H          -0.4666    0.2455   -0.0809 H       1  LIG1        0.2045
     39 H          -2.6489   -1.7563   -0.9892 H       1  LIG1        0.0427
     40 H          -2.9745    0.4988   -2.7123 H       1  LIG1        0.0409
     41 H           0.0721   -1.4587   -2.3718 H       1  LIG1        0.0911
     42 H          -0.6849    0.9336   -2.9422 H       1  LIG1        0.0821
     43 H          -0.9672    2.0127   -1.5346 H       1  LIG1        0.0821
     44 H           1.8271   -0.4062   -0.5385 H       1  LIG1        0.0913
     45 H           1.4754    1.3261   -0.4313 H       1  LIG1        0.0913
     46 H          -3.6243   -0.8106    0.5637 H       1  LIG1        0.0658
     47 H          -3.2657    2.8708   -1.7338 H       1  LIG1        0.0622
     48 H           0.7274   -3.6434   -1.9322 H       1  LIG1        0.0623
     49 H          -1.0108   -1.3853    1.3221 H       1  LIG1        0.0623
     50 H          -4.8016    3.9920   -0.1564 H       1  LIG1        0.0655
     51 H           1.3861   -5.3854   -0.3780 H       1  LIG1        0.0654
     52 H          -0.3382   -3.1569    2.8763 H       1  LIG1        0.0654
     53 H           3.9102    1.2609   -0.7677 H       1  LIG1        0.0464
     54 H           5.2583    0.8922   -1.8097 H       1  LIG1        0.0464
     55 H           5.0153    0.0655   -3.8279 H       1  LIG1        0.0464
     56 H           4.0646    1.5429   -4.0788 H       1  LIG1        0.0464
     57 H           3.7301   -1.1163   -0.0603 H       1  LIG1        0.0280
     58 H           5.3107   -0.4270    0.2128 H       1  LIG1        0.0280
     59 H           2.3264    0.2522   -5.2658 H       1  LIG1        0.0280
     60 H           3.0184   -1.2688   -4.7368 H       1  LIG1        0.0280
     61 H          -6.0751    1.6386    3.7372 H       1  LIG1        0.1166
     62 H          -7.2517    1.1542    2.4908 H       1  LIG1        0.1166
     63 H           5.8151   -2.5292   -0.5629 H       1  LIG1        0.0263
     64 H           6.0644   -1.5487   -2.0016 H       1  LIG1        0.0263
     65 H           3.5459   -0.8571   -7.0781 H       1  LIG1        0.0263
     66 H           5.0291   -0.8860   -6.1320 H       1  LIG1        0.0263
     67 H           3.4944   -3.1164   -1.3848 H       1  LIG1        0.0230
     68 H           4.8229   -3.7277   -2.3794 H       1  LIG1        0.0230
     69 H           3.8957   -2.3298   -2.9190 H       1  LIG1        0.0230
     70 H           3.5958    1.6744   -7.0287 H       1  LIG1        0.0230
     71 H           4.9908    0.9431   -7.8396 H       1  LIG1        0.0230
     72 H           5.1677    1.5893   -6.2062 H       1  LIG1        0.0230
     73 H           1.3185   -7.2569    2.7701 H       1  LIG1        0.0660
     74 H           2.2436   -6.5774    1.4259 H       1  LIG1        0.0660
     75 H           0.5066   -7.0286    1.2166 H       1  LIG1        0.0660
@<TRIPOS>BOND
     1     1    16   ar
     2     2    16   ar
     3     3    22    1
     4     3    32    1
     5     4    18    2
     6     5    24    1
     7     5    32    1
     8     6    29    1
     9     6    37    1
    10     7    11    1
    11     7    12    1
    12     7    15    1
    13     8    18   am
    14     8    27    1
    15     8    28    1
    16     9    10    1
    17     9    11    1
    18     9    16    1
    19    10    12    1
    20    10    13    1
    21    11    14    1
    22    13    17   ar
    23    13    19   ar
    24    14    20   ar
    25    14    21   ar
    26    15    18    1
    27    17    22   ar
    28    19    23   ar
    29    20    25   ar
    30    21    26   ar
    31    22    24   ar
    32    23    24   ar
    33    25    29   ar
    34    26    29   ar
    35    27    30    1
    36    28    31    1
    37    30    33    1
    38    31    34    1
    39    33    35    1
    40    34    36    1
    41     7    38    1
    42     9    39    1
    43    10    40    1
    44    11    41    1
    45    12    42    1
    46    12    43    1
    47    15    44    1
    48    15    45    1
    49    17    46    1
    50    19    47    1
    51    20    48    1
    52    21    49    1
    53    23    50    1
    54    25    51    1
    55    26    52    1
    56    27    53    1
    57    27    54    1
    58    28    55    1
    59    28    56    1
    60    30    57    1
    61    30    58    1
    62    31    59    1
    63    31    60    1
    64    32    61    1
    65    32    62    1
    66    33    63    1
    67    33    64    1
    68    34    65    1
    69    34    66    1
    70    35    67    1
    71    35    68    1
    72    35    69    1
    73    36    70    1
    74    36    71    1
    75    36    72    1
    76    37    73    1
    77    37    74    1
    78    37    75    1
@<TRIPOS>MOLECULE
159594
 75 78 0 0 0
SMALL
GASTEIGER

@<TRIPOS>ATOM
      1 O          -2.7205   -2.9825   -2.8772 O.co2   1  LIG1       -0.5493
      2 O          -1.5359   -1.2688   -3.8147 O.co2   1  LIG1       -0.5493
      3 O          -6.4021    0.2421    1.1888 O.3     1  LIG1       -0.4526
      4 O           1.3565    2.0071    0.2754 O.2     1  LIG1       -0.2697
      5 O          -6.0784    2.5131    1.9322 O.3     1  LIG1       -0.4526
      6 O           0.8361   -5.4014    2.5566 O.3     1  LIG1       -0.4951
      7 N          -0.0364    0.0764   -1.0637 N.4     1  LIG1        0.2481
      8 N           2.7054    2.5553   -1.5035 N.am    1  LIG1       -0.2971
      9 C          -1.9997   -1.2194   -1.5123 C.3     1  LIG1        0.0574
     10 C          -2.3529    0.2681   -1.6878 C.3     1  LIG1        0.0378
     11 C          -0.4895   -1.3584   -1.2732 C.3     1  LIG1        0.0143
     12 C          -0.9840    0.8985   -1.9049 C.3     1  LIG1       -0.0230
     13 C          -3.2275    0.8775   -0.5917 C.ar    1  LIG1       -0.0347
     14 C          -0.1370   -2.3432   -0.1587 C.ar    1  LIG1        0.0011
     15 C           1.4078    0.3654   -1.4377 C.3     1  LIG1        0.0468
     16 C          -2.1147   -1.8849   -2.8773 C.2     1  LIG1        0.0513
     17 C          -4.3633    0.1686   -0.1484 C.ar    1  LIG1       -0.0125
     18 C           1.8361    1.7107   -0.8278 C.2     1  LIG1        0.2608
     19 C          -3.0684    2.2161   -0.1421 C.ar    1  LIG1       -0.0544
     20 C           0.6432   -2.0351    0.9673 C.ar    1  LIG1       -0.0498
     21 C          -0.5535   -3.6790   -0.3074 C.ar    1  LIG1       -0.0498
     22 C          -5.2532    0.7860    0.7069 C.ar    1  LIG1        0.1665
     23 C          -3.9866    2.8173    0.7287 C.ar    1  LIG1       -0.0159
     24 C          -5.0706    2.0783    1.1324 C.ar    1  LIG1        0.1662
     25 C           0.9926   -3.0291    1.9012 C.ar    1  LIG1       -0.0195
     26 C          -0.2162   -4.6607    0.6274 C.ar    1  LIG1       -0.0195
     27 C           3.0850    3.8101   -0.8444 C.3     1  LIG1        0.0148
     28 C           3.1703    2.3775   -2.8876 C.3     1  LIG1        0.0148
     29 C           0.5665   -4.3450    1.7349 C.ar    1  LIG1        0.1201
     30 C           4.0251    3.6506    0.3572 C.3     1  LIG1       -0.0374
     31 C           2.4770    3.3089   -3.8945 C.3     1  LIG1       -0.0374
     32 C          -6.9402    1.3550    1.9318 C.3     1  LIG1        0.2332
     33 C           5.4194    3.1196    0.0151 C.3     1  LIG1       -0.0545
     34 C           0.9642    3.1124   -3.9710 C.3     1  LIG1       -0.0545
     35 C           5.4954    1.6014   -0.0454 C.3     1  LIG1       -0.0652
     36 C           0.3180    4.0613   -4.9685 C.3     1  LIG1       -0.0652
     37 C           1.6724   -5.1582    3.6792 C.3     1  LIG1        0.0788
     38 H          -0.1868    0.3453   -0.0807 H       1  LIG1        0.2045
     39 H          -2.6044   -1.7434   -0.7672 H       1  LIG1        0.0427
     40 H          -2.9448    0.4378   -2.5991 H       1  LIG1        0.0409
     41 H           0.0856   -1.7041   -2.1435 H       1  LIG1        0.0911
     42 H          -0.6643    0.8042   -2.9467 H       1  LIG1        0.0821
     43 H          -0.8722    1.9407   -1.6123 H       1  LIG1        0.0821
     44 H           1.4705    0.3254   -2.5243 H       1  LIG1        0.0913
     45 H           2.0344   -0.4183   -1.0017 H       1  LIG1        0.0913
     46 H          -4.5895   -0.8341   -0.5052 H       1  LIG1        0.0658
     47 H          -2.2605    2.8513   -0.4903 H       1  LIG1        0.0622
     48 H           1.0112   -1.0317    1.1542 H       1  LIG1        0.0623
     49 H          -1.1531   -3.9876   -1.1666 H       1  LIG1        0.0623
     50 H          -3.8686    3.8474    1.0460 H       1  LIG1        0.0655
     51 H           1.6044   -2.7401    2.7510 H       1  LIG1        0.0654
     52 H          -0.5628   -5.6809    0.4798 H       1  LIG1        0.0654
     53 H           2.1617    4.2988   -0.5081 H       1  LIG1        0.0464
     54 H           3.5487    4.4839   -1.5733 H       1  LIG1        0.0464
     55 H           3.0582    1.3390   -3.2034 H       1  LIG1        0.0464
     56 H           4.2475    2.5823   -2.8976 H       1  LIG1        0.0464
     57 H           3.5677    3.0323    1.1368 H       1  LIG1        0.0280
     58 H           4.1505    4.6497    0.7942 H       1  LIG1        0.0280
     59 H           2.9136    3.1319   -4.8851 H       1  LIG1        0.0280
     60 H           2.6897    4.3548   -3.6452 H       1  LIG1        0.0280
     61 H          -7.1042    1.0406    2.9677 H       1  LIG1        0.1166
     62 H          -7.9051    1.6362    1.4925 H       1  LIG1        0.1166
     63 H           6.1114    3.4537    0.7985 H       1  LIG1        0.0263
     64 H           5.7789    3.5524   -0.9252 H       1  LIG1        0.0263
     65 H           0.5130    3.2887   -2.9898 H       1  LIG1        0.0263
     66 H           0.7428    2.0819   -4.2648 H       1  LIG1        0.0263
     67 H           5.1146    1.1520    0.8772 H       1  LIG1        0.0230
     68 H           6.5358    1.2843   -0.1691 H       1  LIG1        0.0230
     69 H           4.9275    1.1949   -0.8846 H       1  LIG1        0.0230
     70 H           0.4972    5.1048   -4.6901 H       1  LIG1        0.0230
     71 H          -0.7645    3.8998   -4.9953 H       1  LIG1        0.0230
     72 H           0.7112    3.9003   -5.9767 H       1  LIG1        0.0230
     73 H           1.7867   -6.1025    4.2198 H       1  LIG1        0.0660
     74 H           1.2161   -4.4352    4.3626 H       1  LIG1        0.0660
     75 H           2.6692   -4.8317    3.3634 H       1  LIG1        0.0660
@<TRIPOS>BOND
     1     1    16   ar
     2     2    16   ar
     3     3    22    1
     4     3    32    1
     5     4    18    2
     6     5    24    1
     7     5    32    1
     8     6    29    1
     9     6    37    1
    10     7    11    1
    11     7    12    1
    12     7    15    1
    13     8    18   am
    14     8    27    1
    15     8    28    1
    16     9    10    1
    17     9    11    1
    18     9    16    1
    19    10    12    1
    20    10    13    1
    21    11    14    1
    22    13    17   ar
    23    13    19   ar
    24    14    20   ar
    25    14    21   ar
    26    15    18    1
    27    17    22   ar
    28    19    23   ar
    29    20    25   ar
    30    21    26   ar
    31    22    24   ar
    32    23    24   ar
    33    25    29   ar
    34    26    29   ar
    35    27    30    1
    36    28    31    1
    37    30    33    1
    38    31    34    1
    39    33    35    1
    40    34    36    1
    41     7    38    1
    42     9    39    1
    43    10    40    1
    44    11    41    1
    45    12    42    1
    46    12    43    1
    47    15    44    1
    48    15    45    1
    49    17    46    1
    50    19    47    1
    51    20    48    1
    52    21    49    1
    53    23    50    1
    54    25    51    1
    55    26    52    1
    56    27    53    1
    57    27    54    1
    58    28    55    1
    59    28    56    1
    60    30    57    1
    61    30    58    1
    62    31    59    1
    63    31    60    1
    64    32    61    1
    65    32    62    1
    66    33    63    1
    67    33    64    1
    68    34    65    1
    69    34    66    1
    70    35    67    1
    71    35    68    1
    72    35    69    1
    73    36    70    1
    74    36    71    1
    75    36    72    1
    76    37    73    1
    77    37    74    1
    78    37    75    1
@<TRIPOS>MOLECULE
159594
 75 78 0 0 0
SMALL
GASTEIGER

@<TRIPOS>ATOM
      1 O          -1.4699   -1.2342   -3.8810 O.co2   1  LIG1       -0.5493
      2 O          -2.1952   -3.0919   -2.7639 O.co2   1  LIG1       -0.5493
      3 O          -6.1989    0.3328    0.9479 O.3     1  LIG1       -0.4526
      4 O           2.5751    2.3223   -1.2264 O.2     1  LIG1       -0.2697
      5 O          -5.9878    2.6437    1.6012 O.3     1  LIG1       -0.4526
      6 O           1.1818   -5.3122    2.5169 O.3     1  LIG1       -0.4951
      7 N           0.2078   -0.0072   -0.8576 N.4     1  LIG1        0.2481
      8 N           2.2702    1.6833    0.9611 N.am    1  LIG1       -0.2971
      9 C          -1.7811   -1.1304   -1.5649 C.3     1  LIG1        0.0574
     10 C          -2.0022    0.3851   -1.7496 C.3     1  LIG1        0.0378
     11 C          -0.2931   -1.3701   -1.3218 C.3     1  LIG1        0.0143
     12 C          -0.5662    0.9416   -1.7462 C.3     1  LIG1       -0.0230
     13 C          -2.9899    1.0143   -0.7581 C.ar    1  LIG1       -0.0347
     14 C           0.0516   -2.4452   -0.3085 C.ar    1  LIG1        0.0011
     15 C           1.7155    0.1257   -0.9598 C.3     1  LIG1        0.0468
     16 C          -1.8613   -1.8879   -2.8761 C.2     1  LIG1        0.0513
     17 C          -4.1244    0.2889   -0.3343 C.ar    1  LIG1       -0.0125
     18 C           2.2461    1.4576   -0.4170 C.2     1  LIG1        0.2608
     19 C          -2.9117    2.3826   -0.3913 C.ar    1  LIG1       -0.0544
     20 C           0.9216   -3.4796   -0.6922 C.ar    1  LIG1       -0.0498
     21 C          -0.4411   -2.4366    1.0025 C.ar    1  LIG1       -0.0498
     22 C          -5.0642    0.9076    0.4673 C.ar    1  LIG1        0.1665
     23 C          -3.8843    2.9881    0.4197 C.ar    1  LIG1       -0.0159
     24 C          -4.9457    2.2211    0.8381 C.ar    1  LIG1        0.1662
     25 C           1.3241   -4.4583    0.2187 C.ar    1  LIG1       -0.0195
     26 C          -0.0396   -3.4220    1.9089 C.ar    1  LIG1       -0.0195
     27 C           2.5647    3.0547    1.4192 C.3     1  LIG1        0.0148
     28 C           2.0764    0.6420    1.9851 C.3     1  LIG1        0.0148
     29 C           0.8569   -4.4242    1.5296 C.ar    1  LIG1        0.1201
     30 C           1.3668    4.0122    1.3816 C.3     1  LIG1       -0.0374
     31 C           3.1680    0.5458    3.0671 C.3     1  LIG1       -0.0374
     32 C          -6.7890    1.4434    1.6533 C.3     1  LIG1        0.2332
     33 C           1.0369    4.6435    0.0257 C.3     1  LIG1       -0.0545
     34 C           4.6196    0.5883    2.5789 C.3     1  LIG1       -0.0545
     35 C           2.1725    5.4637   -0.5728 C.3     1  LIG1       -0.0652
     36 C           5.0075   -0.5829    1.6945 C.3     1  LIG1       -0.0652
     37 C           2.2408   -6.2195    2.2319 C.3     1  LIG1        0.0788
     38 H          -0.0922    0.1390    0.1100 H       1  LIG1        0.2045
     39 H          -2.4123   -1.6036   -0.8099 H       1  LIG1        0.0427
     40 H          -2.4517    0.6185   -2.7243 H       1  LIG1        0.0409
     41 H           0.2867   -1.5650   -2.2360 H       1  LIG1        0.0911
     42 H          -0.1179    0.8934   -2.7453 H       1  LIG1        0.0821
     43 H          -0.4406    1.9450   -1.3427 H       1  LIG1        0.0821
     44 H           1.9806    0.0462   -2.0211 H       1  LIG1        0.0913
     45 H           2.1867   -0.7162   -0.4494 H       1  LIG1        0.0913
     46 H          -4.3165   -0.7318   -0.6547 H       1  LIG1        0.0658
     47 H          -2.1263    3.0307   -0.7712 H       1  LIG1        0.0622
     48 H           1.2770   -3.5496   -1.7208 H       1  LIG1        0.0623
     49 H          -1.1582   -1.6881    1.3308 H       1  LIG1        0.0623
     50 H          -3.8258    4.0396    0.6800 H       1  LIG1        0.0655
     51 H           1.9822   -5.2440   -0.1381 H       1  LIG1        0.0654
     52 H          -0.4386   -3.4198    2.9208 H       1  LIG1        0.0654
     53 H           3.4090    3.4441    0.8422 H       1  LIG1        0.0464
     54 H           2.9116    3.0153    2.4551 H       1  LIG1        0.0464
     55 H           1.9821   -0.3393    1.5202 H       1  LIG1        0.0464
     56 H           1.1134    0.8485    2.4666 H       1  LIG1        0.0464
     57 H           1.5745    4.8330    2.0807 H       1  LIG1        0.0280
     58 H           0.4748    3.4997    1.7613 H       1  LIG1        0.0280
     59 H           3.0077   -0.3791    3.6362 H       1  LIG1        0.0280
     60 H           3.0286    1.3568    3.7923 H       1  LIG1        0.0280
     61 H          -6.9250    1.1592    2.7031 H       1  LIG1        0.1166
     62 H          -7.7721    1.6559    1.2167 H       1  LIG1        0.1166
     63 H           0.1739    5.3071    0.1598 H       1  LIG1        0.0263
     64 H           0.7172    3.8785   -0.6859 H       1  LIG1        0.0263
     65 H           5.2770    0.5913    3.4574 H       1  LIG1        0.0263
     66 H           4.8221    1.5241    2.0475 H       1  LIG1        0.0263
     67 H           2.4762    6.2671    0.1052 H       1  LIG1        0.0230
     68 H           1.8496    5.9183   -1.5149 H       1  LIG1        0.0230
     69 H           3.0527    4.8546   -0.7940 H       1  LIG1        0.0230
     70 H           4.8686   -1.5328    2.2195 H       1  LIG1        0.0230
     71 H           6.0639   -0.5034    1.4158 H       1  LIG1        0.0230
     72 H           4.4205   -0.6034    0.7731 H       1  LIG1        0.0230
     73 H           2.4183   -6.8189    3.1297 H       1  LIG1        0.0660
     74 H           3.1664   -5.6804    2.0019 H       1  LIG1        0.0660
     75 H           1.9718   -6.9057    1.4223 H       1  LIG1        0.0660
@<TRIPOS>BOND
     1     1    16   ar
     2     2    16   ar
     3     3    22    1
     4     3    32    1
     5     4    18    2
     6     5    24    1
     7     5    32    1
     8     6    29    1
     9     6    37    1
    10     7    11    1
    11     7    12    1
    12     7    15    1
    13     8    18   am
    14     8    27    1
    15     8    28    1
    16     9    10    1
    17     9    11    1
    18     9    16    1
    19    10    12    1
    20    10    13    1
    21    11    14    1
    22    13    17   ar
    23    13    19   ar
    24    14    20   ar
    25    14    21   ar
    26    15    18    1
    27    17    22   ar
    28    19    23   ar
    29    20    25   ar
    30    21    26   ar
    31    22    24   ar
    32    23    24   ar
    33    25    29   ar
    34    26    29   ar
    35    27    30    1
    36    28    31    1
    37    30    33    1
    38    31    34    1
    39    33    35    1
    40    34    36    1
    41     7    38    1
    42     9    39    1
    43    10    40    1
    44    11    41    1
    45    12    42    1
    46    12    43    1
    47    15    44    1
    48    15    45    1
    49    17    46    1
    50    19    47    1
    51    20    48    1
    52    21    49    1
    53    23    50    1
    54    25    51    1
    55    26    52    1
    56    27    53    1
    57    27    54    1
    58    28    55    1
    59    28    56    1
    60    30    57    1
    61    30    58    1
    62    31    59    1
    63    31    60    1
    64    32    61    1
    65    32    62    1
    66    33    63    1
    67    33    64    1
    68    34    65    1
    69    34    66    1
    70    35    67    1
    71    35    68    1
    72    35    69    1
    73    36    70    1
    74    36    71    1
    75    36    72    1
    76    37    73    1
    77    37    74    1
    78    37    75    1
@<TRIPOS>MOLECULE
159594
 75 78 0 0 0
SMALL
GASTEIGER

@<TRIPOS>ATOM
      1 O          -1.3446   -1.2016   -4.0377 O.co2   1  LIG1       -0.5493
      2 O          -1.9769   -3.1271   -2.9841 O.co2   1  LIG1       -0.5493
      3 O          -6.2273    0.2359    0.8834 O.3     1  LIG1       -0.4526
      4 O           1.0549    2.6568   -0.2773 O.2     1  LIG1       -0.2697
      5 O          -5.8905    2.4659    1.7361 O.3     1  LIG1       -0.4526
      6 O           1.0739   -5.1861    2.5153 O.3     1  LIG1       -0.4951
      7 N           0.0524    0.1498   -0.9894 N.4     1  LIG1        0.2481
      8 N           3.1759    1.9381    0.2527 N.am    1  LIG1       -0.2971
      9 C          -1.8071   -1.1518   -1.7411 C.3     1  LIG1        0.0574
     10 C          -2.1207    0.3484   -1.9424 C.3     1  LIG1        0.0378
     11 C          -0.3228   -1.2719   -1.3914 C.3     1  LIG1        0.0143
     12 C          -0.7107    0.9586   -2.0182 C.3     1  LIG1       -0.0230
     13 C          -3.0493    0.9402   -0.8704 C.ar    1  LIG1       -0.0347
     14 C           0.0273   -2.3057   -0.3384 C.ar    1  LIG1        0.0011
     15 C           1.5436    0.3980   -0.9184 C.3     1  LIG1        0.0468
     16 C          -1.7420   -1.8968   -3.0619 C.2     1  LIG1        0.0513
     17 C          -4.1967    0.2216   -0.4720 C.ar    1  LIG1       -0.0125
     18 C           1.9022    1.7609   -0.2981 C.2     1  LIG1        0.2608
     19 C          -2.8892    2.2569   -0.3661 C.ar    1  LIG1       -0.0544
     20 C           0.8073   -3.4101   -0.7244 C.ar    1  LIG1       -0.0498
     21 C          -0.3930   -2.2212    0.9936 C.ar    1  LIG1       -0.0498
     22 C          -5.0831    0.8031    0.4151 C.ar    1  LIG1        0.1665
     23 C          -3.8076    2.8242    0.5293 C.ar    1  LIG1       -0.0159
     24 C          -4.8934    2.0701    0.9023 C.ar    1  LIG1        0.1662
     25 C           1.1839   -4.3920    0.1955 C.ar    1  LIG1       -0.0195
     26 C          -0.0126   -3.2064    1.9129 C.ar    1  LIG1       -0.0195
     27 C           3.4030    3.1893    0.9956 C.3     1  LIG1        0.0148
     28 C           4.1883    0.8716    0.3264 C.3     1  LIG1        0.0148
     29 C           0.7756   -4.2942    1.5218 C.ar    1  LIG1        0.1201
     30 C           2.5784    3.3478    2.2816 C.3     1  LIG1       -0.0374
     31 C           5.6523    1.2616    0.0788 C.3     1  LIG1       -0.0374
     32 C          -6.7495    1.3069    1.6967 C.3     1  LIG1        0.2332
     33 C           2.7820    2.2652    3.3403 C.3     1  LIG1       -0.0545
     34 C           5.9898    1.6355   -1.3667 C.3     1  LIG1       -0.0545
     35 C           4.1898    2.2343    3.9113 C.3     1  LIG1       -0.0652
     36 C           5.4676    2.9938   -1.8020 C.3     1  LIG1       -0.0652
     37 C           1.7108   -6.3956    2.1139 C.3     1  LIG1        0.0788
     38 H          -0.3563    0.3649   -0.0733 H       1  LIG1        0.2045
     39 H          -2.4595   -1.6751   -1.0370 H       1  LIG1        0.0427
     40 H          -2.6403    0.5408   -2.8900 H       1  LIG1        0.0409
     41 H           0.3288   -1.4640   -2.2572 H       1  LIG1        0.0911
     42 H          -0.2277    0.7926   -2.9874 H       1  LIG1        0.0821
     43 H          -0.6382    2.0171   -1.7831 H       1  LIG1        0.0821
     44 H           1.9528    0.3252   -1.9302 H       1  LIG1        0.0913
     45 H           1.9360   -0.3951   -0.2793 H       1  LIG1        0.0913
     46 H          -4.4274   -0.7634   -0.8697 H       1  LIG1        0.0658
     47 H          -2.0721    2.9013   -0.6796 H       1  LIG1        0.0622
     48 H           1.1055   -3.5378   -1.7661 H       1  LIG1        0.0623
     49 H          -1.0403   -1.4163    1.3322 H       1  LIG1        0.0623
     50 H          -3.6832    3.8380    0.8941 H       1  LIG1        0.0655
     51 H           1.7789   -5.2242   -0.1657 H       1  LIG1        0.0654
     52 H          -0.3530   -3.1432    2.9443 H       1  LIG1        0.0654
     53 H           3.1361    4.0130    0.3205 H       1  LIG1        0.0464
     54 H           4.4629    3.3188    1.2183 H       1  LIG1        0.0464
     55 H           3.9445    0.0776   -0.3837 H       1  LIG1        0.0464
     56 H           4.1006    0.4314    1.3255 H       1  LIG1        0.0464
     57 H           1.5109    3.3849    2.0381 H       1  LIG1        0.0280
     58 H           2.8170    4.3251    2.7206 H       1  LIG1        0.0280
     59 H           6.2577    0.3794    0.3283 H       1  LIG1        0.0280
     60 H           5.9927    2.0458    0.7609 H       1  LIG1        0.0280
     61 H          -6.8857    0.9383    2.7197 H       1  LIG1        0.1166
     62 H          -7.7259    1.6067    1.2981 H       1  LIG1        0.1166
     63 H           2.5206    1.2815    2.9360 H       1  LIG1        0.0263
     64 H           2.0818    2.4568    4.1625 H       1  LIG1        0.0263
     65 H           5.6239    0.8628   -2.0523 H       1  LIG1        0.0263
     66 H           7.0827    1.6473   -1.4646 H       1  LIG1        0.0263
     67 H           4.9267    1.9525    3.1549 H       1  LIG1        0.0230
     68 H           4.2480    1.5015    4.7226 H       1  LIG1        0.0230
     69 H           4.4697    3.2112    4.3177 H       1  LIG1        0.0230
     70 H           4.3798    2.9924   -1.9050 H       1  LIG1        0.0230
     71 H           5.8870    3.2596   -2.7780 H       1  LIG1        0.0230
     72 H           5.7537    3.7746   -1.0904 H       1  LIG1        0.0230
     73 H           1.8029   -7.0355    2.9965 H       1  LIG1        0.0660
     74 H           2.7208   -6.2003    1.7382 H       1  LIG1        0.0660
     75 H           1.1116   -6.9360    1.3727 H       1  LIG1        0.0660
@<TRIPOS>BOND
     1     1    16   ar
     2     2    16   ar
     3     3    22    1
     4     3    32    1
     5     4    18    2
     6     5    24    1
     7     5    32    1
     8     6    29    1
     9     6    37    1
    10     7    11    1
    11     7    12    1
    12     7    15    1
    13     8    18   am
    14     8    27    1
    15     8    28    1
    16     9    10    1
    17     9    11    1
    18     9    16    1
    19    10    12    1
    20    10    13    1
    21    11    14    1
    22    13    17   ar
    23    13    19   ar
    24    14    20   ar
    25    14    21   ar
    26    15    18    1
    27    17    22   ar
    28    19    23   ar
    29    20    25   ar
    30    21    26   ar
    31    22    24   ar
    32    23    24   ar
    33    25    29   ar
    34    26    29   ar
    35    27    30    1
    36    28    31    1
    37    30    33    1
    38    31    34    1
    39    33    35    1
    40    34    36    1
    41     7    38    1
    42     9    39    1
    43    10    40    1
    44    11    41    1
    45    12    42    1
    46    12    43    1
    47    15    44    1
    48    15    45    1
    49    17    46    1
    50    19    47    1
    51    20    48    1
    52    21    49    1
    53    23    50    1
    54    25    51    1
    55    26    52    1
    56    27    53    1
    57    27    54    1
    58    28    55    1
    59    28    56    1
    60    30    57    1
    61    30    58    1
    62    31    59    1
    63    31    60    1
    64    32    61    1
    65    32    62    1
    66    33    63    1
    67    33    64    1
    68    34    65    1
    69    34    66    1
    70    35    67    1
    71    35    68    1
    72    35    69    1
    73    36    70    1
    74    36    71    1
    75    36    72    1
    76    37    73    1
    77    37    74    1
    78    37    75    1
@<TRIPOS>MOLECULE
159594
 75 78 0 0 0
SMALL
GASTEIGER

@<TRIPOS>ATOM
      1 O          -1.9523   -1.2889   -3.9266 O.co2   1  LIG1       -0.5493
      2 O          -1.8631   -3.2059   -2.6943 O.co2   1  LIG1       -0.5493
      3 O          -5.6209    3.7197   -0.8328 O.3     1  LIG1       -0.4526
      4 O           1.1274    2.3111    0.2962 O.2     1  LIG1       -0.2697
      5 O          -5.9721    2.9535    1.4266 O.3     1  LIG1       -0.4526
      6 O           1.0905   -5.4391    2.3424 O.3     1  LIG1       -0.4951
      7 N           0.0829    0.0655   -0.8539 N.4     1  LIG1        0.2481
      8 N           3.3376    2.0174   -0.2851 N.am    1  LIG1       -0.2971
      9 C          -1.8620   -1.1362   -1.5803 C.3     1  LIG1        0.0574
     10 C          -2.1123    0.3618   -1.7871 C.3     1  LIG1        0.0378
     11 C          -0.3623   -1.3150   -1.3280 C.3     1  LIG1        0.0143
     12 C          -0.7269    1.0076   -1.7151 C.3     1  LIG1       -0.0230
     13 C          -3.0972    1.0273   -0.8303 C.ar    1  LIG1       -0.0347
     14 C           0.0337   -2.3978   -0.3386 C.ar    1  LIG1        0.0011
     15 C           1.5879    0.2960   -0.9050 C.3     1  LIG1        0.0468
     16 C          -1.9433   -1.9572   -2.8694 C.2     1  LIG1        0.0513
     17 C          -3.8603    2.1082   -1.3228 C.ar    1  LIG1       -0.0125
     18 C           1.9948    1.6240   -0.2473 C.2     1  LIG1        0.2608
     19 C          -3.2960    0.6107    0.5024 C.ar    1  LIG1       -0.0544
     20 C           0.8709   -3.4397   -0.7730 C.ar    1  LIG1       -0.0498
     21 C          -0.4121   -2.4213    0.9882 C.ar    1  LIG1       -0.0498
     22 C          -4.7953    2.6945   -0.4973 C.ar    1  LIG1        0.1665
     23 C          -4.2547    1.2269    1.3199 C.ar    1  LIG1       -0.0159
     24 C          -4.9913    2.2604    0.7892 C.ar    1  LIG1        0.1662
     25 C           1.2565   -4.4708    0.0889 C.ar    1  LIG1       -0.0195
     26 C          -0.0296   -3.4573    1.8474 C.ar    1  LIG1       -0.0195
     27 C           3.6695    3.3305    0.2886 C.3     1  LIG1        0.0148
     28 C           4.4199    1.1901   -0.8468 C.3     1  LIG1        0.0148
     29 C           0.8030   -4.4862    1.4047 C.ar    1  LIG1        0.1201
     30 C           3.4380    3.5238    1.7870 C.3     1  LIG1       -0.0374
     31 C           5.5399    1.8948   -1.6317 C.3     1  LIG1       -0.0374
     32 C          -6.3883    3.8562    0.3799 C.3     1  LIG1        0.2332
     33 C           3.9415    4.9012    2.2515 C.3     1  LIG1       -0.0545
     34 C           5.1482    2.5780   -2.9463 C.3     1  LIG1       -0.0545
     35 C           3.3545    6.0697    1.4662 C.3     1  LIG1       -0.0652
     36 C           4.2216    3.7741   -2.8302 C.3     1  LIG1       -0.0652
     37 C           1.8420   -6.5639    1.9002 C.3     1  LIG1        0.0788
     38 H          -0.2172    0.2171    0.1155 H       1  LIG1        0.2045
     39 H          -2.5090   -1.6008   -0.8308 H       1  LIG1        0.0427
     40 H          -2.5202    0.5688   -2.7839 H       1  LIG1        0.0409
     41 H           0.2105   -1.4623   -2.2560 H       1  LIG1        0.0911
     42 H          -0.2483    1.0374   -2.6996 H       1  LIG1        0.0821
     43 H          -0.7184    2.0022   -1.2628 H       1  LIG1        0.0821
     44 H           1.8787    0.2779   -1.9594 H       1  LIG1        0.0913
     45 H           2.0574   -0.5232   -0.3519 H       1  LIG1        0.0913
     46 H          -3.7525    2.4640   -2.3440 H       1  LIG1        0.0658
     47 H          -2.7420   -0.2192    0.9220 H       1  LIG1        0.0622
     48 H           1.1940   -3.4879   -1.8140 H       1  LIG1        0.0623
     49 H          -1.0873   -1.6636    1.3720 H       1  LIG1        0.0623
     50 H          -4.4286    0.8871    2.3355 H       1  LIG1        0.0655
     51 H           1.8866   -5.2588   -0.3116 H       1  LIG1        0.0654
     52 H          -0.4058   -3.4779    2.8672 H       1  LIG1        0.0654
     53 H           3.0527    4.0501   -0.2562 H       1  LIG1        0.0464
     54 H           4.7112    3.5716    0.0859 H       1  LIG1        0.0464
     55 H           3.9983    0.4103   -1.4872 H       1  LIG1        0.0464
     56 H           4.8690    0.6727    0.0079 H       1  LIG1        0.0464
     57 H           3.9555    2.7416    2.3525 H       1  LIG1        0.0280
     58 H           2.3739    3.4389    2.0347 H       1  LIG1        0.0280
     59 H           6.2753    1.1183   -1.8900 H       1  LIG1        0.0280
     60 H           6.0925    2.5962   -0.9969 H       1  LIG1        0.0280
     61 H          -7.4444    3.6676    0.1506 H       1  LIG1        0.1166
     62 H          -6.2860    4.8840    0.7450 H       1  LIG1        0.1166
     63 H           5.0317    4.9379    2.1706 H       1  LIG1        0.0263
     64 H           3.6940    5.0283    3.3115 H       1  LIG1        0.0263
     65 H           4.7062    1.8456   -3.6259 H       1  LIG1        0.0263
     66 H           6.0766    2.9281   -3.4236 H       1  LIG1        0.0263
     67 H           3.7083    6.0791    0.4298 H       1  LIG1        0.0230
     68 H           3.6599    7.0234    1.9149 H       1  LIG1        0.0230
     69 H           2.2582    6.0337    1.4555 H       1  LIG1        0.0230
     70 H           3.2127    3.4712   -2.5433 H       1  LIG1        0.0230
     71 H           4.1394    4.2824   -3.7962 H       1  LIG1        0.0230
     72 H           4.6008    4.5071   -2.1070 H       1  LIG1        0.0230
     73 H           1.9295   -7.2590    2.7403 H       1  LIG1        0.0660
     74 H           2.8539   -6.2649    1.6078 H       1  LIG1        0.0660
     75 H           1.3335   -7.0900    1.0849 H       1  LIG1        0.0660
@<TRIPOS>BOND
     1     1    16   ar
     2     2    16   ar
     3     3    22    1
     4     3    32    1
     5     4    18    2
     6     5    24    1
     7     5    32    1
     8     6    29    1
     9     6    37    1
    10     7    11    1
    11     7    12    1
    12     7    15    1
    13     8    18   am
    14     8    27    1
    15     8    28    1
    16     9    10    1
    17     9    11    1
    18     9    16    1
    19    10    12    1
    20    10    13    1
    21    11    14    1
    22    13    17   ar
    23    13    19   ar
    24    14    20   ar
    25    14    21   ar
    26    15    18    1
    27    17    22   ar
    28    19    23   ar
    29    20    25   ar
    30    21    26   ar
    31    22    24   ar
    32    23    24   ar
    33    25    29   ar
    34    26    29   ar
    35    27    30    1
    36    28    31    1
    37    30    33    1
    38    31    34    1
    39    33    35    1
    40    34    36    1
    41     7    38    1
    42     9    39    1
    43    10    40    1
    44    11    41    1
    45    12    42    1
    46    12    43    1
    47    15    44    1
    48    15    45    1
    49    17    46    1
    50    19    47    1
    51    20    48    1
    52    21    49    1
    53    23    50    1
    54    25    51    1
    55    26    52    1
    56    27    53    1
    57    27    54    1
    58    28    55    1
    59    28    56    1
    60    30    57    1
    61    30    58    1
    62    31    59    1
    63    31    60    1
    64    32    61    1
    65    32    62    1
    66    33    63    1
    67    33    64    1
    68    34    65    1
    69    34    66    1
    70    35    67    1
    71    35    68    1
    72    35    69    1
    73    36    70    1
    74    36    71    1
    75    36    72    1
    76    37    73    1
    77    37    74    1
    78    37    75    1
@<TRIPOS>MOLECULE
159594
 75 78 0 0 0
SMALL
GASTEIGER

@<TRIPOS>ATOM
      1 O          -1.1658   -1.1281   -4.0319 O.co2   1  LIG1       -0.5493
      2 O          -1.9445   -3.0740   -3.1299 O.co2   1  LIG1       -0.5493
      3 O          -5.5339    3.6662   -0.6786 O.3     1  LIG1       -0.4526
      4 O           0.9929    2.4986    0.0935 O.2     1  LIG1       -0.2697
      5 O          -5.7412    2.8508    1.5812 O.3     1  LIG1       -0.4526
      6 O           0.9915   -5.2969    2.4495 O.3     1  LIG1       -0.4951
      7 N           0.0527    0.1767   -0.9897 N.4     1  LIG1        0.2481
      8 N           3.2421    2.1681   -0.2852 N.am    1  LIG1       -0.2971
      9 C          -1.7809   -1.1720   -1.7673 C.3     1  LIG1        0.0574
     10 C          -2.1362    0.3070   -1.9527 C.3     1  LIG1        0.0378
     11 C          -0.3053   -1.2522   -1.3729 C.3     1  LIG1        0.0143
     12 C          -0.7782    1.0142   -1.9438 C.3     1  LIG1       -0.0230
     13 C          -3.0772    0.9230   -0.9216 C.ar    1  LIG1       -0.0347
     14 C           0.0121   -2.3033   -0.3207 C.ar    1  LIG1        0.0011
     15 C           1.5399    0.4674   -1.0423 C.3     1  LIG1        0.0468
     16 C          -1.6559   -1.8505   -3.1209 C.2     1  LIG1        0.0513
     17 C          -3.8506    2.0299   -1.3312 C.ar    1  LIG1       -0.0125
     18 C           1.8998    1.7998   -0.3708 C.2     1  LIG1        0.2608
     19 C          -3.2075    0.4574    0.4061 C.ar    1  LIG1       -0.0544
     20 C           0.3118   -3.6026   -0.7732 C.ar    1  LIG1       -0.0498
     21 C           0.0259   -2.0716    1.0595 C.ar    1  LIG1       -0.0498
     22 C          -4.7150    2.6109   -0.4280 C.ar    1  LIG1        0.1665
     23 C          -4.0895    1.0760    1.3054 C.ar    1  LIG1       -0.0159
     24 C          -4.8317    2.1470    0.8568 C.ar    1  LIG1        0.1662
     25 C           0.6436   -4.6310    0.1124 C.ar    1  LIG1       -0.0195
     26 C           0.3633   -3.1053    1.9452 C.ar    1  LIG1       -0.0195
     27 C           3.5532    3.4108    0.4354 C.3     1  LIG1        0.0148
     28 C           4.3591    1.3078   -0.7069 C.3     1  LIG1        0.0148
     29 C           0.6764   -4.3858    1.4803 C.ar    1  LIG1        0.1201
     30 C           3.2925    3.3735    1.9458 C.3     1  LIG1       -0.0374
     31 C           5.4348    1.9595   -1.5871 C.3     1  LIG1       -0.0374
     32 C          -6.2180    3.7813    0.5860 C.3     1  LIG1        0.2332
     33 C           4.1131    2.3203    2.6863 C.3     1  LIG1       -0.0545
     34 C           4.9734    2.3956   -2.9796 C.3     1  LIG1       -0.0545
     35 C           3.9083    2.4274    4.1900 C.3     1  LIG1       -0.0652
     36 C           4.1551    3.6764   -2.9945 C.3     1  LIG1       -0.0652
     37 C           1.2299   -6.6324    2.0156 C.3     1  LIG1        0.0788
     38 H          -0.2878    0.4048   -0.0501 H       1  LIG1        0.2045
     39 H          -2.4677   -1.7285   -1.1228 H       1  LIG1        0.0427
     40 H          -2.6230    0.4676   -2.9237 H       1  LIG1        0.0409
     41 H           0.3793   -1.4599   -2.2089 H       1  LIG1        0.0911
     42 H          -0.2852    0.9879   -2.9209 H       1  LIG1        0.0821
     43 H          -0.8100    2.0427   -1.5738 H       1  LIG1        0.0821
     44 H           1.8454    0.4695   -2.0928 H       1  LIG1        0.0913
     45 H           2.0335   -0.3387   -0.4915 H       1  LIG1        0.0913
     46 H          -3.7966    2.4196   -2.3442 H       1  LIG1        0.0658
     47 H          -2.6501   -0.4054    0.7579 H       1  LIG1        0.0622
     48 H           0.2684   -3.8374   -1.8397 H       1  LIG1        0.0623
     49 H          -0.2253   -1.1055    1.4843 H       1  LIG1        0.0623
     50 H          -4.2021    0.7128    2.3214 H       1  LIG1        0.0655
     51 H           0.8576   -5.6090   -0.3069 H       1  LIG1        0.0654
     52 H           0.3722   -2.9162    3.0170 H       1  LIG1        0.0654
     53 H           2.9290    4.2015   -0.0001 H       1  LIG1        0.0464
     54 H           4.5906    3.7016    0.2555 H       1  LIG1        0.0464
     55 H           3.9852    0.4255   -1.2314 H       1  LIG1        0.0464
     56 H           4.8317    0.9381    0.2097 H       1  LIG1        0.0464
     57 H           2.2286    3.2078    2.1480 H       1  LIG1        0.0280
     58 H           3.5309    4.3654    2.3505 H       1  LIG1        0.0280
     59 H           6.2227    1.2074   -1.7289 H       1  LIG1        0.0280
     60 H           5.9214    2.7960   -1.0756 H       1  LIG1        0.0280
     61 H          -7.2882    3.6051    0.4231 H       1  LIG1        0.1166
     62 H          -6.0843    4.8010    0.9647 H       1  LIG1        0.1166
     63 H           5.1776    2.4417    2.4566 H       1  LIG1        0.0263
     64 H           3.8165    1.3168    2.3622 H       1  LIG1        0.0263
     65 H           4.4124    1.5899   -3.4661 H       1  LIG1        0.0263
     66 H           5.8693    2.5666   -3.5898 H       1  LIG1        0.0263
     67 H           4.2386    3.4029    4.5615 H       1  LIG1        0.0230
     68 H           4.4830    1.6539    4.7082 H       1  LIG1        0.0230
     69 H           2.8528    2.3007    4.4519 H       1  LIG1        0.0230
     70 H           3.1529    3.5189   -2.5894 H       1  LIG1        0.0230
     71 H           4.0373    4.0330   -4.0230 H       1  LIG1        0.0230
     72 H           4.6464    4.4681   -2.4198 H       1  LIG1        0.0230
     73 H           1.4320   -7.2424    2.9013 H       1  LIG1        0.0660
     74 H           2.1119   -6.6851    1.3683 H       1  LIG1        0.0660
     75 H           0.3488   -7.0513    1.5174 H       1  LIG1        0.0660
@<TRIPOS>BOND
     1     1    16   ar
     2     2    16   ar
     3     3    22    1
     4     3    32    1
     5     4    18    2
     6     5    24    1
     7     5    32    1
     8     6    29    1
     9     6    37    1
    10     7    11    1
    11     7    12    1
    12     7    15    1
    13     8    18   am
    14     8    27    1
    15     8    28    1
    16     9    10    1
    17     9    11    1
    18     9    16    1
    19    10    12    1
    20    10    13    1
    21    11    14    1
    22    13    17   ar
    23    13    19   ar
    24    14    20   ar
    25    14    21   ar
    26    15    18    1
    27    17    22   ar
    28    19    23   ar
    29    20    25   ar
    30    21    26   ar
    31    22    24   ar
    32    23    24   ar
    33    25    29   ar
    34    26    29   ar
    35    27    30    1
    36    28    31    1
    37    30    33    1
    38    31    34    1
    39    33    35    1
    40    34    36    1
    41     7    38    1
    42     9    39    1
    43    10    40    1
    44    11    41    1
    45    12    42    1
    46    12    43    1
    47    15    44    1
    48    15    45    1
    49    17    46    1
    50    19    47    1
    51    20    48    1
    52    21    49    1
    53    23    50    1
    54    25    51    1
    55    26    52    1
    56    27    53    1
    57    27    54    1
    58    28    55    1
    59    28    56    1
    60    30    57    1
    61    30    58    1
    62    31    59    1
    63    31    60    1
    64    32    61    1
    65    32    62    1
    66    33    63    1
    67    33    64    1
    68    34    65    1
    69    34    66    1
    70    35    67    1
    71    35    68    1
    72    35    69    1
    73    36    70    1
    74    36    71    1
    75    36    72    1
    76    37    73    1
    77    37    74    1
    78    37    75    1
@<TRIPOS>MOLECULE
159594
 75 78 0 0 0
SMALL
GASTEIGER

@<TRIPOS>ATOM
      1 O          -2.3899   -2.9636   -3.0738 O.co2   1  LIG1       -0.5493
      2 O          -1.3349   -1.1245   -3.9304 O.co2   1  LIG1       -0.5493
      3 O          -6.2084    0.2875    1.0721 O.3     1  LIG1       -0.4526
      4 O           2.8617   -1.7666   -0.7578 O.2     1  LIG1       -0.2697
      5 O          -5.9386    2.5841    1.7529 O.3     1  LIG1       -0.4526
      6 O           0.7297   -5.5579    2.4345 O.3     1  LIG1       -0.4951
      7 N           0.0931   -0.0165   -0.8889 N.4     1  LIG1        0.2481
      8 N           2.7928   -0.4256    1.1337 N.am    1  LIG1       -0.2971
      9 C          -1.8634   -1.1821   -1.6512 C.3     1  LIG1        0.0574
     10 C          -2.1148    0.3337   -1.7776 C.3     1  LIG1        0.0378
     11 C          -0.3872   -1.4122   -1.3182 C.3     1  LIG1        0.0143
     12 C          -0.6885    0.8917   -1.8111 C.3     1  LIG1       -0.0230
     13 C          -3.0462    0.9441   -0.7237 C.ar    1  LIG1       -0.0347
     14 C          -0.1725   -2.4789   -0.2568 C.ar    1  LIG1        0.0011
     15 C           1.5879    0.2163   -1.0083 C.3     1  LIG1        0.0468
     16 C          -1.8841   -1.8169   -3.0297 C.2     1  LIG1        0.0513
     17 C          -4.1689    0.2237   -0.2664 C.ar    1  LIG1       -0.0125
     18 C           2.4715   -0.7406   -0.1968 C.2     1  LIG1        0.2608
     19 C          -2.9340    2.3047   -0.3330 C.ar    1  LIG1       -0.0544
     20 C           0.4135   -3.6933   -0.6493 C.ar    1  LIG1       -0.0498
     21 C          -0.5283   -2.3223    1.0906 C.ar    1  LIG1       -0.0498
     22 C          -5.0742    0.8467    0.5720 C.ar    1  LIG1        0.1665
     23 C          -3.8637    2.9100    0.5241 C.ar    1  LIG1       -0.0159
     24 C          -4.9237    2.1530    0.9592 C.ar    1  LIG1        0.1662
     25 C           0.6953   -4.6905    0.2842 C.ar    1  LIG1       -0.0195
     26 C          -0.2442   -3.3290    2.0275 C.ar    1  LIG1       -0.0195
     27 C           3.4697   -1.4601    1.9413 C.3     1  LIG1        0.0148
     28 C           2.2118    0.7570    1.7953 C.3     1  LIG1        0.0148
     29 C           0.3784   -4.5124    1.6281 C.ar    1  LIG1        0.1201
     30 C           4.6867   -2.1806    1.3388 C.3     1  LIG1       -0.0374
     31 C           2.4842    1.0311    3.2807 C.3     1  LIG1       -0.0374
     32 C          -6.7782    1.4098    1.7765 C.3     1  LIG1        0.2332
     33 C           5.7746   -1.2749    0.7609 C.3     1  LIG1       -0.0545
     34 C           1.7158    0.1510    4.2743 C.3     1  LIG1       -0.0545
     35 C           6.4073   -0.3550    1.7915 C.3     1  LIG1       -0.0652
     36 C           0.2107    0.3697    4.2467 C.3     1  LIG1       -0.0652
     37 C           0.3153   -5.4990    3.7910 C.3     1  LIG1        0.0788
     38 H          -0.2225    0.1264    0.0710 H       1  LIG1        0.2045
     39 H          -2.5403   -1.7134   -0.9788 H       1  LIG1        0.0427
     40 H          -2.6076    0.5870   -2.7266 H       1  LIG1        0.0409
     41 H           0.2486   -1.6579   -2.1803 H       1  LIG1        0.0911
     42 H          -0.2396    0.8142   -2.8078 H       1  LIG1        0.0821
     43 H          -0.5508    1.9123   -1.4533 H       1  LIG1        0.0821
     44 H           1.7726    1.2581   -0.7351 H       1  LIG1        0.0913
     45 H           1.8539    0.1093   -2.0671 H       1  LIG1        0.0913
     46 H          -4.3848   -0.7892   -0.5958 H       1  LIG1        0.0658
     47 H          -2.1597    2.9529   -0.7332 H       1  LIG1        0.0622
     48 H           0.6699   -3.8735   -1.6939 H       1  LIG1        0.0623
     49 H          -1.0424   -1.4304    1.4359 H       1  LIG1        0.0623
     50 H          -3.7800    3.9559    0.7994 H       1  LIG1        0.0655
     51 H           1.1639   -5.6146   -0.0469 H       1  LIG1        0.0654
     52 H          -0.5244   -3.1617    3.0622 H       1  LIG1        0.0654
     53 H           2.7097   -2.2037    2.2056 H       1  LIG1        0.0464
     54 H           3.8232   -1.0168    2.8728 H       1  LIG1        0.0464
     55 H           1.1330    0.7446    1.6209 H       1  LIG1        0.0464
     56 H           2.6020    1.6187    1.2397 H       1  LIG1        0.0464
     57 H           4.3691   -2.8922    0.5699 H       1  LIG1        0.0280
     58 H           5.1292   -2.8041    2.1273 H       1  LIG1        0.0280
     59 H           2.2049    2.0744    3.4814 H       1  LIG1        0.0280
     60 H           3.5586    0.9745    3.4878 H       1  LIG1        0.0280
     61 H          -6.9463    1.1214    2.8200 H       1  LIG1        0.1166
     62 H          -7.7437    1.6590    1.3200 H       1  LIG1        0.1166
     63 H           5.3793   -0.6774   -0.0672 H       1  LIG1        0.0263
     64 H           6.5596   -1.9128    0.3366 H       1  LIG1        0.0263
     65 H           2.0758    0.3853    5.2838 H       1  LIG1        0.0263
     66 H           1.9237   -0.9097    4.1108 H       1  LIG1        0.0263
     67 H           5.6921    0.3872    2.1568 H       1  LIG1        0.0230
     68 H           7.2485    0.1847    1.3448 H       1  LIG1        0.0230
     69 H           6.7862   -0.9236    2.6466 H       1  LIG1        0.0230
     70 H          -0.0378    1.4225    4.4123 H       1  LIG1        0.0230
     71 H          -0.2667   -0.2183    5.0375 H       1  LIG1        0.0230
     72 H          -0.2243    0.0567    3.2944 H       1  LIG1        0.0230
     73 H           0.6169   -6.4348    4.2719 H       1  LIG1        0.0660
     74 H          -0.7735   -5.4191    3.8704 H       1  LIG1        0.0660
     75 H           0.8132   -4.6780    4.3168 H       1  LIG1        0.0660
@<TRIPOS>BOND
     1     1    16   ar
     2     2    16   ar
     3     3    22    1
     4     3    32    1
     5     4    18    2
     6     5    24    1
     7     5    32    1
     8     6    29    1
     9     6    37    1
    10     7    11    1
    11     7    12    1
    12     7    15    1
    13     8    18   am
    14     8    27    1
    15     8    28    1
    16     9    10    1
    17     9    11    1
    18     9    16    1
    19    10    12    1
    20    10    13    1
    21    11    14    1
    22    13    17   ar
    23    13    19   ar
    24    14    20   ar
    25    14    21   ar
    26    15    18    1
    27    17    22   ar
    28    19    23   ar
    29    20    25   ar
    30    21    26   ar
    31    22    24   ar
    32    23    24   ar
    33    25    29   ar
    34    26    29   ar
    35    27    30    1
    36    28    31    1
    37    30    33    1
    38    31    34    1
    39    33    35    1
    40    34    36    1
    41     7    38    1
    42     9    39    1
    43    10    40    1
    44    11    41    1
    45    12    42    1
    46    12    43    1
    47    15    44    1
    48    15    45    1
    49    17    46    1
    50    19    47    1
    51    20    48    1
    52    21    49    1
    53    23    50    1
    54    25    51    1
    55    26    52    1
    56    27    53    1
    57    27    54    1
    58    28    55    1
    59    28    56    1
    60    30    57    1
    61    30    58    1
    62    31    59    1
    63    31    60    1
    64    32    61    1
    65    32    62    1
    66    33    63    1
    67    33    64    1
    68    34    65    1
    69    34    66    1
    70    35    67    1
    71    35    68    1
    72    35    69    1
    73    36    70    1
    74    36    71    1
    75    36    72    1
    76    37    73    1
    77    37    74    1
    78    37    75    1
@<TRIPOS>MOLECULE
159594
 75 78 0 0 0
SMALL
GASTEIGER

@<TRIPOS>ATOM
      1 O          -1.3791   -1.0943   -3.9404 O.co2   1  LIG1       -0.5493
      2 O          -2.3279   -2.9733   -3.0432 O.co2   1  LIG1       -0.5493
      3 O          -6.2156    0.2637    1.0836 O.3     1  LIG1       -0.4526
      4 O           2.9695   -1.6279   -0.8060 O.2     1  LIG1       -0.2697
      5 O          -6.0009    2.5802    1.7153 O.3     1  LIG1       -0.4526
      6 O           1.0179   -5.2808    2.5690 O.3     1  LIG1       -0.4951
      7 N           0.0983    0.0158   -0.8862 N.4     1  LIG1        0.2481
      8 N           2.7847   -0.3817    1.1399 N.am    1  LIG1       -0.2971
      9 C          -1.8490   -1.1613   -1.6464 C.3     1  LIG1        0.0574
     10 C          -2.1190    0.3522   -1.7652 C.3     1  LIG1        0.0378
     11 C          -0.3614   -1.3763   -1.3489 C.3     1  LIG1        0.0143
     12 C          -0.7014    0.9308   -1.7853 C.3     1  LIG1       -0.0230
     13 C          -3.0667    0.9549   -0.7215 C.ar    1  LIG1       -0.0347
     14 C          -0.0886   -2.4545   -0.3144 C.ar    1  LIG1        0.0011
     15 C           1.5884    0.2866   -1.0017 C.3     1  LIG1        0.0468
     16 C          -1.8778   -1.8029   -3.0211 C.2     1  LIG1        0.0513
     17 C          -4.1716    0.2178   -0.2496 C.ar    1  LIG1       -0.0125
     18 C           2.5066   -0.6552   -0.2085 C.2     1  LIG1        0.2608
     19 C          -2.9885    2.3268   -0.3606 C.ar    1  LIG1       -0.0544
     20 C          -0.5445   -2.3879    1.0083 C.ar    1  LIG1       -0.0498
     21 C           0.6803   -3.5672   -0.6959 C.ar    1  LIG1       -0.0498
     22 C          -5.0930    0.8380    0.5740 C.ar    1  LIG1        0.1665
     23 C          -3.9324    2.9284    0.4829 C.ar    1  LIG1       -0.0159
     24 C          -4.9744    2.1556    0.9332 C.ar    1  LIG1        0.1662
     25 C          -0.1664   -3.3689    1.9335 C.ar    1  LIG1       -0.0195
     26 C           1.0650   -4.5377    0.2318 C.ar    1  LIG1       -0.0195
     27 C           3.4346   -1.4311    1.9493 C.3     1  LIG1        0.0148
     28 C           2.1579    0.7683    1.8209 C.3     1  LIG1        0.0148
     29 C           0.6667   -4.4269    1.5595 C.ar    1  LIG1        0.1201
     30 C           4.6263   -2.2012    1.3596 C.3     1  LIG1       -0.0374
     31 C           2.4235    1.0315    3.3098 C.3     1  LIG1       -0.0374
     32 C          -6.8117    1.3868    1.7648 C.3     1  LIG1        0.2332
     33 C           5.7609   -1.3412    0.8012 C.3     1  LIG1       -0.0545
     34 C           1.6796    0.1259    4.2996 C.3     1  LIG1       -0.0545
     35 C           6.3968   -0.4281    1.8362 C.3     1  LIG1       -0.0652
     36 C           0.1649    0.2259    4.2056 C.3     1  LIG1       -0.0652
     37 C           2.0772   -6.1895    2.2817 C.3     1  LIG1        0.0788
     38 H          -0.2183    0.1229    0.0792 H       1  LIG1        0.2045
     39 H          -2.5059   -1.6987   -0.9591 H       1  LIG1        0.0427
     40 H          -2.6073    0.6033   -2.7169 H       1  LIG1        0.0409
     41 H           0.2607   -1.5808   -2.2313 H       1  LIG1        0.0911
     42 H          -0.2558    0.8796   -2.7856 H       1  LIG1        0.0821
     43 H          -0.5771    1.9448   -1.4044 H       1  LIG1        0.0821
     44 H           1.7473    1.3291   -0.7128 H       1  LIG1        0.0913
     45 H           1.8533    0.2038   -2.0626 H       1  LIG1        0.0913
     46 H          -4.3637   -0.8065   -0.5572 H       1  LIG1        0.0658
     47 H          -2.2303    2.9846   -0.7763 H       1  LIG1        0.0622
     48 H          -1.2010   -1.5882    1.3394 H       1  LIG1        0.0623
     49 H           1.0188   -3.6760   -1.7272 H       1  LIG1        0.0623
     50 H          -3.8740    3.9817    0.7353 H       1  LIG1        0.0655
     51 H          -0.5157   -3.3062    2.9616 H       1  LIG1        0.0654
     52 H           1.6785   -5.3595   -0.1225 H       1  LIG1        0.0654
     53 H           2.6525   -2.1455    2.2264 H       1  LIG1        0.0464
     54 H           3.8062   -0.9867    2.8734 H       1  LIG1        0.0464
     55 H           1.0810    0.7197    1.6454 H       1  LIG1        0.0464
     56 H           2.5163    1.6525    1.2797 H       1  LIG1        0.0464
     57 H           4.2888   -2.9006    0.5877 H       1  LIG1        0.0280
     58 H           5.0324   -2.8420    2.1540 H       1  LIG1        0.0280
     59 H           2.1135    2.0643    3.5197 H       1  LIG1        0.0280
     60 H           3.4992    1.0039    3.5173 H       1  LIG1        0.0280
     61 H          -6.9722    1.1168    2.8145 H       1  LIG1        0.1166
     62 H          -7.7832    1.6033    1.3044 H       1  LIG1        0.1166
     63 H           5.4100   -0.7407   -0.0443 H       1  LIG1        0.0263
     64 H           6.5343   -2.0114    0.4063 H       1  LIG1        0.0263
     65 H           1.9797    0.4161    5.3142 H       1  LIG1        0.0263
     66 H           1.9740   -0.9202    4.1814 H       1  LIG1        0.0263
     67 H           5.6975    0.3429    2.1716 H       1  LIG1        0.0230
     68 H           7.2669    0.0772    1.4048 H       1  LIG1        0.0230
     69 H           6.7334   -0.9964    2.7089 H       1  LIG1        0.0230
     70 H          -0.1693    1.2635    4.3010 H       1  LIG1        0.0230
     71 H          -0.2989   -0.3548    5.0097 H       1  LIG1        0.0230
     72 H          -0.2053   -0.1725    3.2578 H       1  LIG1        0.0230
     73 H           2.3222   -6.7221    3.2054 H       1  LIG1        0.0660
     74 H           2.9789   -5.6579    1.9566 H       1  LIG1        0.0660
     75 H           1.7694   -6.9340    1.5402 H       1  LIG1        0.0660
@<TRIPOS>BOND
     1     1    16   ar
     2     2    16   ar
     3     3    22    1
     4     3    32    1
     5     4    18    2
     6     5    24    1
     7     5    32    1
     8     6    29    1
     9     6    37    1
    10     7    11    1
    11     7    12    1
    12     7    15    1
    13     8    18   am
    14     8    27    1
    15     8    28    1
    16     9    10    1
    17     9    11    1
    18     9    16    1
    19    10    12    1
    20    10    13    1
    21    11    14    1
    22    13    17   ar
    23    13    19   ar
    24    14    20   ar
    25    14    21   ar
    26    15    18    1
    27    17    22   ar
    28    19    23   ar
    29    20    25   ar
    30    21    26   ar
    31    22    24   ar
    32    23    24   ar
    33    25    29   ar
    34    26    29   ar
    35    27    30    1
    36    28    31    1
    37    30    33    1
    38    31    34    1
    39    33    35    1
    40    34    36    1
    41     7    38    1
    42     9    39    1
    43    10    40    1
    44    11    41    1
    45    12    42    1
    46    12    43    1
    47    15    44    1
    48    15    45    1
    49    17    46    1
    50    19    47    1
    51    20    48    1
    52    21    49    1
    53    23    50    1
    54    25    51    1
    55    26    52    1
    56    27    53    1
    57    27    54    1
    58    28    55    1
    59    28    56    1
    60    30    57    1
    61    30    58    1
    62    31    59    1
    63    31    60    1
    64    32    61    1
    65    32    62    1
    66    33    63    1
    67    33    64    1
    68    34    65    1
    69    34    66    1
    70    35    67    1
    71    35    68    1
    72    35    69    1
    73    36    70    1
    74    36    71    1
    75    36    72    1
    76    37    73    1
    77    37    74    1
    78    37    75    1
@<TRIPOS>MOLECULE
159594
 75 78 0 0 0
SMALL
GASTEIGER

@<TRIPOS>ATOM
      1 O          -1.6618   -1.3239   -3.9713 O.co2   1  LIG1       -0.5493
      2 O          -2.3710   -3.1904   -2.8626 O.co2   1  LIG1       -0.5493
      3 O          -6.4218    0.2893    0.9715 O.3     1  LIG1       -0.4526
      4 O           1.0104    2.2031    0.2342 O.2     1  LIG1       -0.2697
      5 O          -6.0121    2.5089    1.8207 O.3     1  LIG1       -0.4526
      6 O           1.2216   -5.1626    2.4466 O.3     1  LIG1       -0.4951
      7 N          -0.0972    0.1079   -1.1220 N.4     1  LIG1        0.2481
      8 N           2.7422    2.5287   -1.2571 N.am    1  LIG1       -0.2971
      9 C          -2.0102   -1.2181   -1.6505 C.3     1  LIG1        0.0574
     10 C          -2.3524    0.2709   -1.8787 C.3     1  LIG1        0.0378
     11 C          -0.5024   -1.3250   -1.4117 C.3     1  LIG1        0.0143
     12 C          -0.9685    0.8934   -2.0739 C.3     1  LIG1       -0.0230
     13 C          -3.2281    0.8914   -0.7858 C.ar    1  LIG1       -0.0347
     14 C          -0.0839   -2.3315   -0.3560 C.ar    1  LIG1        0.0011
     15 C           1.3744    0.3988   -1.2772 C.3     1  LIG1        0.0468
     16 C          -2.0544   -1.9801   -2.9647 C.2     1  LIG1        0.0513
     17 C          -4.3932    0.2062   -0.3814 C.ar    1  LIG1       -0.0125
     18 C           1.7004    1.7888   -0.7045 C.2     1  LIG1        0.2608
     19 C          -3.0167    2.1977   -0.2754 C.ar    1  LIG1       -0.0544
     20 C           0.3015   -3.6136   -0.7910 C.ar    1  LIG1       -0.0498
     21 C          -0.0664   -2.0702    1.0186 C.ar    1  LIG1       -0.0498
     22 C          -5.2587    0.8168    0.5051 C.ar    1  LIG1        0.1665
     23 C          -3.9150    2.7944    0.6200 C.ar    1  LIG1       -0.0159
     24 C          -5.0270    2.0780    0.9903 C.ar    1  LIG1        0.1662
     25 C           0.7415   -4.5899    0.1072 C.ar    1  LIG1       -0.0195
     26 C           0.3791   -3.0509    1.9157 C.ar    1  LIG1       -0.0195
     27 C           3.0096    3.8589   -0.6998 C.3     1  LIG1        0.0148
     28 C           3.2436    2.2861   -2.6171 C.3     1  LIG1        0.0148
     29 C           0.7968   -4.3074    1.4675 C.ar    1  LIG1        0.1201
     30 C           3.5086    3.8810    0.7509 C.3     1  LIG1       -0.0374
     31 C           2.3119    2.9119   -3.6619 C.3     1  LIG1       -0.0374
     32 C          -6.9039    1.3746    1.7898 C.3     1  LIG1        0.2332
     33 C           4.8707    3.2211    0.9808 C.3     1  LIG1       -0.0545
     34 C           2.6460    2.5157   -5.0987 C.3     1  LIG1       -0.0545
     35 C           4.8176    1.7026    1.0499 C.3     1  LIG1       -0.0652
     36 C           2.2311    1.0897   -5.4300 C.3     1  LIG1       -0.0652
     37 C           1.6990   -6.4348    2.0209 C.3     1  LIG1        0.0788
     38 H          -0.3708    0.3702   -0.1655 H       1  LIG1        0.2045
     39 H          -2.6047   -1.7176   -0.8799 H       1  LIG1        0.0427
     40 H          -2.9306    0.4252   -2.7998 H       1  LIG1        0.0409
     41 H           0.0846   -1.5701   -2.3098 H       1  LIG1        0.0911
     42 H          -0.5773    0.7299   -3.0844 H       1  LIG1        0.0821
     43 H          -0.8685    1.9541   -1.8460 H       1  LIG1        0.0821
     44 H           1.6037    0.2884   -2.3358 H       1  LIG1        0.0913
     45 H           1.9277   -0.3416   -0.6915 H       1  LIG1        0.0913
     46 H          -4.6489   -0.7734   -0.7777 H       1  LIG1        0.0658
     47 H          -2.1748    2.8118   -0.5799 H       1  LIG1        0.0622
     48 H           0.2383   -3.8767   -1.8493 H       1  LIG1        0.0623
     49 H          -0.4014   -1.1209    1.4256 H       1  LIG1        0.0623
     50 H          -3.7552    3.8019    0.9890 H       1  LIG1        0.0655
     51 H           1.0164   -5.5602   -0.2939 H       1  LIG1        0.0654
     52 H           0.3934   -2.8377    2.9828 H       1  LIG1        0.0654
     53 H           2.0802    4.4374   -0.7713 H       1  LIG1        0.0464
     54 H           3.7512    4.3671   -1.3276 H       1  LIG1        0.0464
     55 H           3.3544    1.2107   -2.7704 H       1  LIG1        0.0464
     56 H           4.2531    2.7058   -2.6992 H       1  LIG1        0.0464
     57 H           2.7693    3.4508    1.4342 H       1  LIG1        0.0280
     58 H           3.6026    4.9369    1.0374 H       1  LIG1        0.0280
     59 H           2.3773    4.0040   -3.5769 H       1  LIG1        0.0280
     60 H           1.2671    2.6562   -3.4482 H       1  LIG1        0.0280
     61 H          -7.0401    1.0099    2.8142 H       1  LIG1        0.1166
     62 H          -7.8749    1.7025    1.4006 H       1  LIG1        0.1166
     63 H           5.2616    3.5838    1.9398 H       1  LIG1        0.0263
     64 H           5.5850    3.5355    0.2117 H       1  LIG1        0.0263
     65 H           3.7165    2.6476   -5.2911 H       1  LIG1        0.0263
     66 H           2.1134    3.1927   -5.7776 H       1  LIG1        0.0263
     67 H           4.0375    1.3644    1.7395 H       1  LIG1        0.0230
     68 H           5.7753    1.3113    1.4084 H       1  LIG1        0.0230
     69 H           4.6324    1.2585    0.0691 H       1  LIG1        0.0230
     70 H           2.7912    0.3593   -4.8400 H       1  LIG1        0.0230
     71 H           2.4179    0.8803   -6.4881 H       1  LIG1        0.0230
     72 H           1.1630    0.9384   -5.2412 H       1  LIG1        0.0230
     73 H           2.0251   -6.9856    2.9085 H       1  LIG1        0.0660
     74 H           2.5656   -6.3304    1.3590 H       1  LIG1        0.0660
     75 H           0.9040   -7.0162    1.5420 H       1  LIG1        0.0660
@<TRIPOS>BOND
     1     1    16   ar
     2     2    16   ar
     3     3    22    1
     4     3    32    1
     5     4    18    2
     6     5    24    1
     7     5    32    1
     8     6    29    1
     9     6    37    1
    10     7    11    1
    11     7    12    1
    12     7    15    1
    13     8    18   am
    14     8    27    1
    15     8    28    1
    16     9    10    1
    17     9    11    1
    18     9    16    1
    19    10    12    1
    20    10    13    1
    21    11    14    1
    22    13    17   ar
    23    13    19   ar
    24    14    20   ar
    25    14    21   ar
    26    15    18    1
    27    17    22   ar
    28    19    23   ar
    29    20    25   ar
    30    21    26   ar
    31    22    24   ar
    32    23    24   ar
    33    25    29   ar
    34    26    29   ar
    35    27    30    1
    36    28    31    1
    37    30    33    1
    38    31    34    1
    39    33    35    1
    40    34    36    1
    41     7    38    1
    42     9    39    1
    43    10    40    1
    44    11    41    1
    45    12    42    1
    46    12    43    1
    47    15    44    1
    48    15    45    1
    49    17    46    1
    50    19    47    1
    51    20    48    1
    52    21    49    1
    53    23    50    1
    54    25    51    1
    55    26    52    1
    56    27    53    1
    57    27    54    1
    58    28    55    1
    59    28    56    1
    60    30    57    1
    61    30    58    1
    62    31    59    1
    63    31    60    1
    64    32    61    1
    65    32    62    1
    66    33    63    1
    67    33    64    1
    68    34    65    1
    69    34    66    1
    70    35    67    1
    71    35    68    1
    72    35    69    1
    73    36    70    1
    74    36    71    1
    75    36    72    1
    76    37    73    1
    77    37    74    1
    78    37    75    1
@<TRIPOS>MOLECULE
159594
 75 78 0 0 0
SMALL
GASTEIGER

@<TRIPOS>ATOM
      1 O          -1.6765   -1.3362   -3.9627 O.co2   1  LIG1       -0.5493
      2 O          -2.3858   -3.1960   -2.8449 O.co2   1  LIG1       -0.5493
      3 O          -6.4268    0.2856    0.9715 O.3     1  LIG1       -0.4526
      4 O           1.0066    2.2050    0.2177 O.2     1  LIG1       -0.2697
      5 O          -6.0185    2.5062    1.8188 O.3     1  LIG1       -0.4526
      6 O           1.2264   -5.1609    2.4419 O.3     1  LIG1       -0.4951
      7 N          -0.0976    0.1104   -1.1326 N.4     1  LIG1        0.2481
      8 N           2.7452    2.5332   -1.2640 N.am    1  LIG1       -0.2971
      9 C          -2.0119   -1.2197   -1.6444 C.3     1  LIG1        0.0574
     10 C          -2.3579    0.2673   -1.8783 C.3     1  LIG1        0.0378
     11 C          -0.5026   -1.3238   -1.4157 C.3     1  LIG1        0.0143
     12 C          -0.9764    0.8925   -2.0805 C.3     1  LIG1       -0.0230
     13 C          -3.2333    0.8889   -0.7861 C.ar    1  LIG1       -0.0347
     14 C          -0.0781   -2.3273   -0.3596 C.ar    1  LIG1        0.0011
     15 C           1.3726    0.4055   -1.2988 C.3     1  LIG1        0.0468
     16 C          -2.0669   -1.9901   -2.9530 C.2     1  LIG1        0.0513
     17 C          -4.3980    0.2031   -0.3813 C.ar    1  LIG1       -0.0125
     18 C           1.6991    1.7933   -0.7207 C.2     1  LIG1        0.2608
     19 C          -3.0224    2.1955   -0.2764 C.ar    1  LIG1       -0.0544
     20 C           0.3079   -3.6093   -0.7948 C.ar    1  LIG1       -0.0498
     21 C          -0.0600   -2.0668    1.0143 C.ar    1  LIG1       -0.0498
     22 C          -5.2640    0.8135    0.5047 C.ar    1  LIG1        0.1665
     23 C          -3.9215    2.7923    0.6182 C.ar    1  LIG1       -0.0159
     24 C          -5.0332    2.0753    0.9888 C.ar    1  LIG1        0.1662
     25 C           0.7481   -4.5858    0.1028 C.ar    1  LIG1       -0.0195
     26 C           0.3852   -3.0484    1.9125 C.ar    1  LIG1       -0.0195
     27 C           3.0150    3.8583   -0.6950 C.3     1  LIG1        0.0148
     28 C           3.2504    2.3050   -2.6247 C.3     1  LIG1        0.0148
     29 C           0.8026   -4.3042    1.4634 C.ar    1  LIG1        0.1201
     30 C           3.5114    3.8677    0.7564 C.3     1  LIG1       -0.0374
     31 C           2.3347    2.9605   -3.6635 C.3     1  LIG1       -0.0374
     32 C          -6.9092    1.3710    1.7896 C.3     1  LIG1        0.2332
     33 C           4.8704    3.2004    0.9830 C.3     1  LIG1       -0.0545
     34 C           2.7374    2.6083   -5.0925 C.3     1  LIG1       -0.0545
     35 C           4.8100    1.6819    1.0426 C.3     1  LIG1       -0.0652
     36 C           1.8743    3.3494   -6.1028 C.3     1  LIG1       -0.0652
     37 C           1.7026   -6.4331    2.0156 C.3     1  LIG1        0.0788
     38 H          -0.3652    0.3741   -0.1747 H       1  LIG1        0.2045
     39 H          -2.6004   -1.7153   -0.8670 H       1  LIG1        0.0427
     40 H          -2.9390    0.4169   -2.7985 H       1  LIG1        0.0409
     41 H           0.0790   -1.5706   -2.3168 H       1  LIG1        0.0911
     42 H          -0.5904    0.7285   -3.0931 H       1  LIG1        0.0821
     43 H          -0.8776    1.9537   -1.8543 H       1  LIG1        0.0821
     44 H           1.5941    0.3031   -2.3601 H       1  LIG1        0.0913
     45 H           1.9320   -0.3368   -0.7214 H       1  LIG1        0.0913
     46 H          -4.6526   -0.7773   -0.7768 H       1  LIG1        0.0658
     47 H          -2.1804    2.8095   -0.5808 H       1  LIG1        0.0622
     48 H           0.2431   -3.8716   -1.8528 H       1  LIG1        0.0623
     49 H          -0.3959   -1.1183    1.4221 H       1  LIG1        0.0623
     50 H          -3.7624    3.8000    0.9868 H       1  LIG1        0.0655
     51 H           1.0226   -5.5558   -0.2988 H       1  LIG1        0.0654
     52 H           0.3984   -2.8362    2.9796 H       1  LIG1        0.0654
     53 H           2.0875    4.4402   -0.7640 H       1  LIG1        0.0464
     54 H           3.7594    4.3694   -1.3171 H       1  LIG1        0.0464
     55 H           3.3395    1.2312   -2.8081 H       1  LIG1        0.0464
     56 H           4.2674    2.7090   -2.6925 H       1  LIG1        0.0464
     57 H           2.7690    3.4357    1.4351 H       1  LIG1        0.0280
     58 H           3.6094    4.9211    1.0505 H       1  LIG1        0.0280
     59 H           2.3578    4.0494   -3.5308 H       1  LIG1        0.0280
     60 H           1.2955    2.6522   -3.4958 H       1  LIG1        0.0280
     61 H          -7.0441    1.0069    2.8144 H       1  LIG1        0.1166
     62 H          -7.8810    1.6978    1.4011 H       1  LIG1        0.1166
     63 H           5.2624    3.5556    1.9442 H       1  LIG1        0.0263
     64 H           5.5866    3.5161    0.2160 H       1  LIG1        0.0263
     65 H           2.6309    1.5287   -5.2507 H       1  LIG1        0.0263
     66 H           3.7897    2.8620   -5.2615 H       1  LIG1        0.0263
     67 H           4.0272    1.3432    1.7289 H       1  LIG1        0.0230
     68 H           5.7652    1.2838    1.4001 H       1  LIG1        0.0230
     69 H           4.6241    1.2447    0.0588 H       1  LIG1        0.0230
     70 H           0.8135    3.1186   -5.9600 H       1  LIG1        0.0230
     71 H           2.1506    3.0639   -7.1225 H       1  LIG1        0.0230
     72 H           2.0041    4.4325   -6.0070 H       1  LIG1        0.0230
     73 H           2.0272   -6.9848    2.9031 H       1  LIG1        0.0660
     74 H           2.5701   -6.3291    1.3545 H       1  LIG1        0.0660
     75 H           0.9076   -7.0134    1.5355 H       1  LIG1        0.0660
@<TRIPOS>BOND
     1     1    16   ar
     2     2    16   ar
     3     3    22    1
     4     3    32    1
     5     4    18    2
     6     5    24    1
     7     5    32    1
     8     6    29    1
     9     6    37    1
    10     7    11    1
    11     7    12    1
    12     7    15    1
    13     8    18   am
    14     8    27    1
    15     8    28    1
    16     9    10    1
    17     9    11    1
    18     9    16    1
    19    10    12    1
    20    10    13    1
    21    11    14    1
    22    13    17   ar
    23    13    19   ar
    24    14    20   ar
    25    14    21   ar
    26    15    18    1
    27    17    22   ar
    28    19    23   ar
    29    20    25   ar
    30    21    26   ar
    31    22    24   ar
    32    23    24   ar
    33    25    29   ar
    34    26    29   ar
    35    27    30    1
    36    28    31    1
    37    30    33    1
    38    31    34    1
    39    33    35    1
    40    34    36    1
    41     7    38    1
    42     9    39    1
    43    10    40    1
    44    11    41    1
    45    12    42    1
    46    12    43    1
    47    15    44    1
    48    15    45    1
    49    17    46    1
    50    19    47    1
    51    20    48    1
    52    21    49    1
    53    23    50    1
    54    25    51    1
    55    26    52    1
    56    27    53    1
    57    27    54    1
    58    28    55    1
    59    28    56    1
    60    30    57    1
    61    30    58    1
    62    31    59    1
    63    31    60    1
    64    32    61    1
    65    32    62    1
    66    33    63    1
    67    33    64    1
    68    34    65    1
    69    34    66    1
    70    35    67    1
    71    35    68    1
    72    35    69    1
    73    36    70    1
    74    36    71    1
    75    36    72    1
    76    37    73    1
    77    37    74    1
    78    37    75    1
@<TRIPOS>MOLECULE
159594
 75 78 0 0 0
SMALL
GASTEIGER

@<TRIPOS>ATOM
      1 O          -1.5353   -1.2178   -3.8849 O.co2   1  LIG1       -0.5493
      2 O          -2.0649   -3.1203   -2.7351 O.co2   1  LIG1       -0.5493
      3 O          -5.5483    3.7398   -0.8227 O.3     1  LIG1       -0.4526
      4 O           2.5517    2.3801   -1.2332 O.2     1  LIG1       -0.2697
      5 O          -5.9133    2.9781    1.4349 O.3     1  LIG1       -0.4526
      6 O           1.1437   -5.4284    2.3862 O.3     1  LIG1       -0.4951
      7 N           0.1827    0.0286   -0.8256 N.4     1  LIG1        0.2481
      8 N           2.2674    1.7193    0.9536 N.am    1  LIG1       -0.2971
      9 C          -1.8024   -1.1144   -1.5573 C.3     1  LIG1        0.0574
     10 C          -2.0199    0.3925   -1.7482 C.3     1  LIG1        0.0378
     11 C          -0.3106   -1.3356   -1.3113 C.3     1  LIG1        0.0143
     12 C          -0.6182    1.0036   -1.6637 C.3     1  LIG1       -0.0230
     13 C          -3.0064    1.0619   -0.7959 C.ar    1  LIG1       -0.0347
     14 C           0.0537   -2.4309   -0.3238 C.ar    1  LIG1        0.0011
     15 C           1.6897    0.1781   -0.9685 C.3     1  LIG1        0.0468
     16 C          -1.8484   -1.8871   -2.8638 C.2     1  LIG1        0.0513
     17 C          -3.7690    2.1403   -1.2937 C.ar    1  LIG1       -0.0125
     18 C           2.2284    1.5054   -0.4260 C.2     1  LIG1        0.2608
     19 C          -3.2203    0.6436    0.5357 C.ar    1  LIG1       -0.0544
     20 C           0.8814   -3.4807   -0.7567 C.ar    1  LIG1       -0.0498
     21 C          -0.3870   -2.4392    1.0048 C.ar    1  LIG1       -0.0498
     22 C          -4.7162    2.7227   -0.4771 C.ar    1  LIG1        0.1665
     23 C          -4.1852    1.2595    1.3460 C.ar    1  LIG1       -0.0159
     24 C          -4.9222    2.2908    0.8087 C.ar    1  LIG1        0.1662
     25 C           1.2750   -4.4996    0.1151 C.ar    1  LIG1       -0.0195
     26 C           0.0065   -3.4613    1.8736 C.ar    1  LIG1       -0.0195
     27 C           2.5325    3.0941    1.4160 C.3     1  LIG1        0.0148
     28 C           2.0880    0.6683    1.9705 C.3     1  LIG1        0.0148
     29 C           0.8377   -4.4943    1.4362 C.ar    1  LIG1        0.1201
     30 C           1.3029    4.0119    1.4183 C.3     1  LIG1       -0.0374
     31 C           3.1729    0.5882    3.0599 C.3     1  LIG1       -0.0374
     32 C          -6.3431    3.8593    0.3748 C.3     1  LIG1        0.2332
     33 C           0.9673    4.5880    0.0415 C.3     1  LIG1       -0.0545
     34 C           4.6259    0.6397    2.5770 C.3     1  LIG1       -0.0545
     35 C          -0.0873    5.6788    0.1185 C.3     1  LIG1       -0.0652
     36 C           5.0281   -0.5390    1.7084 C.3     1  LIG1       -0.0652
     37 C           1.8519   -6.5799    1.9407 C.3     1  LIG1        0.0788
     38 H          -0.0879    0.1494    0.1524 H       1  LIG1        0.2045
     39 H          -2.4705   -1.5820   -0.8279 H       1  LIG1        0.0427
     40 H          -2.4207    0.6010   -2.7487 H       1  LIG1        0.0409
     41 H           0.2715   -1.5026   -2.2301 H       1  LIG1        0.0911
     42 H          -0.1447    1.0553   -2.6504 H       1  LIG1        0.0821
     43 H          -0.5831    1.9783   -1.1724 H       1  LIG1        0.0821
     44 H           1.9244    0.1155   -2.0379 H       1  LIG1        0.0913
     45 H           2.1781   -0.6679   -0.4811 H       1  LIG1        0.0913
     46 H          -3.6570    2.4941   -2.3158 H       1  LIG1        0.0658
     47 H          -2.6777   -0.1950    0.9554 H       1  LIG1        0.0622
     48 H           1.2045   -3.5357   -1.7969 H       1  LIG1        0.0623
     49 H          -1.0606   -1.6787    1.3827 H       1  LIG1        0.0623
     50 H          -4.3731    0.9174    2.3578 H       1  LIG1        0.0655
     51 H           1.9061   -5.2894   -0.2797 H       1  LIG1        0.0654
     52 H          -0.3587   -3.4704    2.8983 H       1  LIG1        0.0654
     53 H           3.3286    3.5280    0.7995 H       1  LIG1        0.0464
     54 H           2.9252    3.0610    2.4351 H       1  LIG1        0.0464
     55 H           2.0190   -0.3122    1.4988 H       1  LIG1        0.0464
     56 H           1.1169    0.8506    2.4454 H       1  LIG1        0.0464
     57 H           1.5190    4.8503    2.0929 H       1  LIG1        0.0280
     58 H           0.4333    3.4859    1.8295 H       1  LIG1        0.0280
     59 H           3.0180   -0.3353    3.6329 H       1  LIG1        0.0280
     60 H           3.0222    1.4020    3.7794 H       1  LIG1        0.0280
     61 H          -7.3880    3.6318    0.1292 H       1  LIG1        0.1166
     62 H          -6.2841    4.8929    0.7333 H       1  LIG1        0.1166
     63 H           0.5926    3.7999   -0.6148 H       1  LIG1        0.0263
     64 H           1.8699    5.0022   -0.4230 H       1  LIG1        0.0263
     65 H           5.2799    0.6594    3.4579 H       1  LIG1        0.0263
     66 H           4.8205    1.5708    2.0346 H       1  LIG1        0.0263
     67 H          -1.0108    5.3023    0.5685 H       1  LIG1        0.0230
     68 H          -0.3216    6.0445   -0.8866 H       1  LIG1        0.0230
     69 H           0.2695    6.5267    0.7115 H       1  LIG1        0.0230
     70 H           4.8986   -1.4834    2.2455 H       1  LIG1        0.0230
     71 H           6.0840   -0.4519    1.4305 H       1  LIG1        0.0230
     72 H           4.4426   -0.5780    0.7864 H       1  LIG1        0.0230
     73 H           1.9447   -7.2645    2.7890 H       1  LIG1        0.0660
     74 H           2.8628   -6.3135    1.6147 H       1  LIG1        0.0660
     75 H           1.3059   -7.1037    1.1487 H       1  LIG1        0.0660
@<TRIPOS>BOND
     1     1    16   ar
     2     2    16   ar
     3     3    22    1
     4     3    32    1
     5     4    18    2
     6     5    24    1
     7     5    32    1
     8     6    29    1
     9     6    37    1
    10     7    11    1
    11     7    12    1
    12     7    15    1
    13     8    18   am
    14     8    27    1
    15     8    28    1
    16     9    10    1
    17     9    11    1
    18     9    16    1
    19    10    12    1
    20    10    13    1
    21    11    14    1
    22    13    17   ar
    23    13    19   ar
    24    14    20   ar
    25    14    21   ar
    26    15    18    1
    27    17    22   ar
    28    19    23   ar
    29    20    25   ar
    30    21    26   ar
    31    22    24   ar
    32    23    24   ar
    33    25    29   ar
    34    26    29   ar
    35    27    30    1
    36    28    31    1
    37    30    33    1
    38    31    34    1
    39    33    35    1
    40    34    36    1
    41     7    38    1
    42     9    39    1
    43    10    40    1
    44    11    41    1
    45    12    42    1
    46    12    43    1
    47    15    44    1
    48    15    45    1
    49    17    46    1
    50    19    47    1
    51    20    48    1
    52    21    49    1
    53    23    50    1
    54    25    51    1
    55    26    52    1
    56    27    53    1
    57    27    54    1
    58    28    55    1
    59    28    56    1
    60    30    57    1
    61    30    58    1
    62    31    59    1
    63    31    60    1
    64    32    61    1
    65    32    62    1
    66    33    63    1
    67    33    64    1
    68    34    65    1
    69    34    66    1
    70    35    67    1
    71    35    68    1
    72    35    69    1
    73    36    70    1
    74    36    71    1
    75    36    72    1
    76    37    73    1
    77    37    74    1
    78    37    75    1
@<TRIPOS>MOLECULE
159594
 75 78 0 0 0
SMALL
GASTEIGER

@<TRIPOS>ATOM
      1 O          -1.3496   -1.3028   -3.8779 O.co2   1  LIG1       -0.5493
      2 O          -2.3000   -3.1308   -2.8810 O.co2   1  LIG1       -0.5493
      3 O          -6.2749    2.9010   -0.8943 O.3     1  LIG1       -0.4526
      4 O           1.3359    2.0342    0.5970 O.2     1  LIG1       -0.2697
      5 O          -5.9790    2.8107    1.4962 O.3     1  LIG1       -0.4526
      6 O           0.8195   -5.4529    2.4909 O.3     1  LIG1       -0.4951
      7 N           0.0219    0.0729   -0.9250 N.4     1  LIG1        0.2481
      8 N           2.5536    2.6485   -1.2672 N.am    1  LIG1       -0.2971
      9 C          -1.8871   -1.2132   -1.5944 C.3     1  LIG1        0.0574
     10 C          -2.1955    0.2652   -1.8385 C.3     1  LIG1        0.0378
     11 C          -0.3933   -1.3419   -1.2860 C.3     1  LIG1        0.0143
     12 C          -0.8299    0.9469   -1.8208 C.3     1  LIG1       -0.0230
     13 C          -3.1783    0.8972   -0.8614 C.ar    1  LIG1       -0.0347
     14 C          -0.0622   -2.4018   -0.2485 C.ar    1  LIG1        0.0011
     15 C           1.5035    0.3450   -1.0614 C.3     1  LIG1        0.0468
     16 C          -1.8795   -1.9496   -2.9258 C.2     1  LIG1        0.0513
     17 C          -4.2814    1.5940   -1.3956 C.ar    1  LIG1       -0.0125
     18 C           1.8209    1.7412   -0.5029 C.2     1  LIG1        0.2608
     19 C          -3.0266    0.8397    0.5426 C.ar    1  LIG1       -0.0544
     20 C           0.1430   -3.7172   -0.7095 C.ar    1  LIG1       -0.0498
     21 C           0.0340   -2.1686    1.1280 C.ar    1  LIG1       -0.0498
     22 C          -5.1682    2.2007   -0.5329 C.ar    1  LIG1        0.1665
     23 C          -3.9387    1.4782    1.3952 C.ar    1  LIG1       -0.0159
     24 C          -4.9988    2.1477    0.8273 C.ar    1  LIG1        0.1662
     25 C           0.4441   -4.7630    0.1664 C.ar    1  LIG1       -0.0195
     26 C           0.3428   -3.2195    2.0034 C.ar    1  LIG1       -0.0195
     27 C           3.1483    2.2824   -2.5653 C.3     1  LIG1        0.0148
     28 C           2.8205    3.9562   -0.6532 C.3     1  LIG1        0.0148
     29 C           0.5398   -4.5192    1.5313 C.ar    1  LIG1        0.1201
     30 C           3.7921    3.3621   -3.4427 C.3     1  LIG1       -0.0374
     31 C           3.9301    3.9065    0.4018 C.3     1  LIG1       -0.0374
     32 C          -6.8114    3.2445    0.3999 C.3     1  LIG1        0.2332
     33 C           5.2363    3.6865   -3.0609 C.3     1  LIG1       -0.0545
     34 C           4.3462    5.3189    0.8152 C.3     1  LIG1       -0.0545
     35 C           5.8239    4.7540   -3.9711 C.3     1  LIG1       -0.0652
     36 C           5.4269    5.2998    1.8832 C.3     1  LIG1       -0.0652
     37 C           0.7375   -6.8157    2.0848 C.3     1  LIG1        0.0788
     38 H          -0.2349    0.2897    0.0428 H       1  LIG1        0.2045
     39 H          -2.5494   -1.6952   -0.8678 H       1  LIG1        0.0427
     40 H          -2.6303    0.4196   -2.8349 H       1  LIG1        0.0409
     41 H           0.2388   -1.5724   -2.1559 H       1  LIG1        0.0911
     42 H          -0.3646    0.9471   -2.8128 H       1  LIG1        0.0821
     43 H          -0.8343    1.9621   -1.4119 H       1  LIG1        0.0821
     44 H           1.7722    0.1938   -2.1055 H       1  LIG1        0.0913
     45 H           2.0326   -0.3887   -0.4449 H       1  LIG1        0.0913
     46 H          -4.4557    1.6548   -2.4672 H       1  LIG1        0.0658
     47 H          -2.2132    0.2869    0.9992 H       1  LIG1        0.0622
     48 H           0.0404   -3.9506   -1.7718 H       1  LIG1        0.0623
     49 H          -0.1347   -1.1889    1.5617 H       1  LIG1        0.0623
     50 H          -3.8245    1.4378    2.4729 H       1  LIG1        0.0655
     51 H           0.5846   -5.7525   -0.2561 H       1  LIG1        0.0654
     52 H           0.4121   -3.0282    3.0722 H       1  LIG1        0.0654
     53 H           2.3248    1.8687   -3.1593 H       1  LIG1        0.0464
     54 H           3.8535    1.4625   -2.3847 H       1  LIG1        0.0464
     55 H           1.8959    4.2981   -0.1694 H       1  LIG1        0.0464
     56 H           3.0361    4.6998   -1.4220 H       1  LIG1        0.0464
     57 H           3.1752    4.2666   -3.4732 H       1  LIG1        0.0280
     58 H           3.8074    2.9793   -4.4724 H       1  LIG1        0.0280
     59 H           4.7990    3.3591    0.0197 H       1  LIG1        0.0280
     60 H           3.5822    3.3521    1.2816 H       1  LIG1        0.0280
     61 H          -7.8000    2.7827    0.5044 H       1  LIG1        0.1166
     62 H          -6.9243    4.3330    0.4532 H       1  LIG1        0.1166
     63 H           5.8486    2.7796   -3.1286 H       1  LIG1        0.0263
     64 H           5.3004    4.0415   -2.0315 H       1  LIG1        0.0263
     65 H           3.4761    5.8684    1.1931 H       1  LIG1        0.0263
     66 H           4.7189    5.8655   -0.0593 H       1  LIG1        0.0263
     67 H           5.8090    4.4326   -5.0172 H       1  LIG1        0.0230
     68 H           6.8623    4.9588   -3.6925 H       1  LIG1        0.0230
     69 H           5.2604    5.6892   -3.8893 H       1  LIG1        0.0230
     70 H           5.0713    4.8038    2.7917 H       1  LIG1        0.0230
     71 H           5.7164    6.3224    2.1458 H       1  LIG1        0.0230
     72 H           6.3196    4.7745    1.5295 H       1  LIG1        0.0230
     73 H           0.8592   -7.4385    2.9764 H       1  LIG1        0.0660
     74 H           1.5455   -7.0674    1.3904 H       1  LIG1        0.0660
     75 H          -0.2420   -7.0445    1.6510 H       1  LIG1        0.0660
@<TRIPOS>BOND
     1     1    16   ar
     2     2    16   ar
     3     3    22    1
     4     3    32    1
     5     4    18    2
     6     5    24    1
     7     5    32    1
     8     6    29    1
     9     6    37    1
    10     7    11    1
    11     7    12    1
    12     7    15    1
    13     8    18   am
    14     8    27    1
    15     8    28    1
    16     9    10    1
    17     9    11    1
    18     9    16    1
    19    10    12    1
    20    10    13    1
    21    11    14    1
    22    13    17   ar
    23    13    19   ar
    24    14    20   ar
    25    14    21   ar
    26    15    18    1
    27    17    22   ar
    28    19    23   ar
    29    20    25   ar
    30    21    26   ar
    31    22    24   ar
    32    23    24   ar
    33    25    29   ar
    34    26    29   ar
    35    27    30    1
    36    28    31    1
    37    30    33    1
    38    31    34    1
    39    33    35    1
    40    34    36    1
    41     7    38    1
    42     9    39    1
    43    10    40    1
    44    11    41    1
    45    12    42    1
    46    12    43    1
    47    15    44    1
    48    15    45    1
    49    17    46    1
    50    19    47    1
    51    20    48    1
    52    21    49    1
    53    23    50    1
    54    25    51    1
    55    26    52    1
    56    27    53    1
    57    27    54    1
    58    28    55    1
    59    28    56    1
    60    30    57    1
    61    30    58    1
    62    31    59    1
    63    31    60    1
    64    32    61    1
    65    32    62    1
    66    33    63    1
    67    33    64    1
    68    34    65    1
    69    34    66    1
    70    35    67    1
    71    35    68    1
    72    35    69    1
    73    36    70    1
    74    36    71    1
    75    36    72    1
    76    37    73    1
    77    37    74    1
    78    37    75    1
@<TRIPOS>MOLECULE
159594
 75 78 0 0 0
SMALL
GASTEIGER

@<TRIPOS>ATOM
      1 O          -2.6390   -3.0297   -2.8301 O.co2   1  LIG1       -0.5493
      2 O          -1.3514   -1.4075   -3.7909 O.co2   1  LIG1       -0.5493
      3 O          -3.5033    3.5237    1.7929 O.3     1  LIG1       -0.4526
      4 O           1.2137    2.1073    0.3757 O.2     1  LIG1       -0.2697
      5 O          -5.8043    2.8070    1.6959 O.3     1  LIG1       -0.4526
      6 O           0.6081   -5.4678    2.7244 O.3     1  LIG1       -0.4951
      7 N           0.0313   -0.0309   -0.8607 N.4     1  LIG1        0.2481
      8 N           2.9944    2.1974   -1.0803 N.am    1  LIG1       -0.2971
      9 C          -1.9340   -1.2138   -1.5293 C.3     1  LIG1        0.0574
     10 C          -2.1396    0.2871   -1.7988 C.3     1  LIG1        0.0378
     11 C          -0.4619   -1.4321   -1.1733 C.3     1  LIG1        0.0143
     12 C          -0.7130    0.8256   -1.8651 C.3     1  LIG1       -0.0230
     13 C          -3.0824    0.9271   -0.7835 C.ar    1  LIG1       -0.0347
     14 C          -0.2217   -2.4737   -0.0929 C.ar    1  LIG1        0.0011
     15 C           1.5314    0.1432   -0.9165 C.3     1  LIG1        0.0468
     16 C          -2.0036   -1.9500   -2.8534 C.2     1  LIG1        0.0513
     17 C          -2.7123    1.9444    0.1117 C.ar    1  LIG1       -0.0125
     18 C           1.9140    1.5638   -0.4873 C.2     1  LIG1        0.2608
     19 C          -4.4430    0.5162   -0.8177 C.ar    1  LIG1       -0.0544
     20 C          -0.3425   -3.8284   -0.4581 C.ar    1  LIG1       -0.0498
     21 C           0.1543   -2.1841    1.2255 C.ar    1  LIG1       -0.0498
     22 C          -3.6946    2.5107    0.9040 C.ar    1  LIG1        0.1665
     23 C          -5.4117    1.1012    0.0040 C.ar    1  LIG1       -0.0159
     24 C          -5.0056    2.1042    0.8503 C.ar    1  LIG1        0.1662
     25 C          -0.0813   -4.8590    0.4495 C.ar    1  LIG1       -0.0195
     26 C           0.4306   -3.2194    2.1276 C.ar    1  LIG1       -0.0195
     27 C           3.8438    1.6147   -2.1280 C.3     1  LIG1        0.0148
     28 C           3.3549    3.5445   -0.6130 C.3     1  LIG1        0.0148
     29 C           0.3085   -4.5581    1.7492 C.ar    1  LIG1        0.1201
     30 C           3.2160    1.5920   -3.5297 C.3     1  LIG1       -0.0374
     31 C           4.4803    3.5393    0.4302 C.3     1  LIG1       -0.0374
     32 C          -4.8522    3.7259    2.2674 C.3     1  LIG1        0.2332
     33 C           2.5943    2.9140   -3.9762 C.3     1  LIG1       -0.0545
     34 C           4.1004    2.9736    1.8020 C.3     1  LIG1       -0.0545
     35 C           1.9118    2.7620   -5.3281 C.3     1  LIG1       -0.0652
     36 C           3.1271    3.8549    2.5712 C.3     1  LIG1       -0.0652
     37 C           0.2080   -6.8117    2.4740 C.3     1  LIG1        0.0788
     38 H          -0.2952    0.2570    0.0700 H       1  LIG1        0.2045
     39 H          -2.6284   -1.6364   -0.7954 H       1  LIG1        0.0427
     40 H          -2.6105    0.4841   -2.7722 H       1  LIG1        0.0409
     41 H           0.1673   -1.7463   -2.0181 H       1  LIG1        0.0911
     42 H          -0.2476    0.6578   -2.8430 H       1  LIG1        0.0821
     43 H          -0.5985    1.8793   -1.6023 H       1  LIG1        0.0821
     44 H           1.8490   -0.1239   -1.9194 H       1  LIG1        0.0913
     45 H           1.9780   -0.5519   -0.2000 H       1  LIG1        0.0913
     46 H          -1.7042    2.3321    0.1993 H       1  LIG1        0.0658
     47 H          -4.7560   -0.2650   -1.5133 H       1  LIG1        0.0622
     48 H          -0.6492   -4.1028   -1.4700 H       1  LIG1        0.0623
     49 H           0.2523   -1.1666    1.5888 H       1  LIG1        0.0623
     50 H          -6.4482    0.7859   -0.0390 H       1  LIG1        0.0655
     51 H          -0.1891   -5.8803    0.0989 H       1  LIG1        0.0654
     52 H           0.7363   -2.9821    3.1444 H       1  LIG1        0.0654
     53 H           4.0933    0.5900   -1.8300 H       1  LIG1        0.0464
     54 H           4.7887    2.1690   -2.1638 H       1  LIG1        0.0464
     55 H           2.4700    4.0549   -0.2193 H       1  LIG1        0.0464
     56 H           3.6766    4.1241   -1.4864 H       1  LIG1        0.0464
     57 H           2.4503    0.8144   -3.5911 H       1  LIG1        0.0280
     58 H           3.9933    1.2957   -4.2453 H       1  LIG1        0.0280
     59 H           4.8377    4.5681    0.5619 H       1  LIG1        0.0280
     60 H           5.3300    2.9627    0.0452 H       1  LIG1        0.0280
     61 H          -5.1602    4.7490    2.0207 H       1  LIG1        0.1166
     62 H          -4.8618    3.6094    3.3569 H       1  LIG1        0.1166
     63 H           3.3657    3.6892   -4.0384 H       1  LIG1        0.0263
     64 H           1.8444    3.2493   -3.2510 H       1  LIG1        0.0263
     65 H           5.0154    2.8781    2.3997 H       1  LIG1        0.0263
     66 H           3.6907    1.9631    1.7039 H       1  LIG1        0.0263
     67 H           2.6251    2.4496   -6.0972 H       1  LIG1        0.0230
     68 H           1.4656    3.7116   -5.6389 H       1  LIG1        0.0230
     69 H           1.1124    2.0143   -5.2790 H       1  LIG1        0.0230
     70 H           3.5422    4.8568    2.7210 H       1  LIG1        0.0230
     71 H           2.9280    3.4224    3.5570 H       1  LIG1        0.0230
     72 H           2.1696    3.9562    2.0543 H       1  LIG1        0.0230
     73 H           0.4083   -7.3940    3.3784 H       1  LIG1        0.0660
     74 H           0.7925   -7.2524    1.6594 H       1  LIG1        0.0660
     75 H          -0.8659   -6.8733    2.2684 H       1  LIG1        0.0660
@<TRIPOS>BOND
     1     1    16   ar
     2     2    16   ar
     3     3    22    1
     4     3    32    1
     5     4    18    2
     6     5    24    1
     7     5    32    1
     8     6    29    1
     9     6    37    1
    10     7    11    1
    11     7    12    1
    12     7    15    1
    13     8    18   am
    14     8    27    1
    15     8    28    1
    16     9    10    1
    17     9    11    1
    18     9    16    1
    19    10    12    1
    20    10    13    1
    21    11    14    1
    22    13    17   ar
    23    13    19   ar
    24    14    20   ar
    25    14    21   ar
    26    15    18    1
    27    17    22   ar
    28    19    23   ar
    29    20    25   ar
    30    21    26   ar
    31    22    24   ar
    32    23    24   ar
    33    25    29   ar
    34    26    29   ar
    35    27    30    1
    36    28    31    1
    37    30    33    1
    38    31    34    1
    39    33    35    1
    40    34    36    1
    41     7    38    1
    42     9    39    1
    43    10    40    1
    44    11    41    1
    45    12    42    1
    46    12    43    1
    47    15    44    1
    48    15    45    1
    49    17    46    1
    50    19    47    1
    51    20    48    1
    52    21    49    1
    53    23    50    1
    54    25    51    1
    55    26    52    1
    56    27    53    1
    57    27    54    1
    58    28    55    1
    59    28    56    1
    60    30    57    1
    61    30    58    1
    62    31    59    1
    63    31    60    1
    64    32    61    1
    65    32    62    1
    66    33    63    1
    67    33    64    1
    68    34    65    1
    69    34    66    1
    70    35    67    1
    71    35    68    1
    72    35    69    1
    73    36    70    1
    74    36    71    1
    75    36    72    1
    76    37    73    1
    77    37    74    1
    78    37    75    1
@<TRIPOS>MOLECULE
159594
 75 78 0 0 0
SMALL
GASTEIGER

@<TRIPOS>ATOM
      1 O          -1.8007   -1.3637   -3.8327 O.co2   1  LIG1       -0.5493
      2 O          -2.6581   -3.1145   -2.6409 O.co2   1  LIG1       -0.5493
      3 O          -5.6965    3.7532   -0.5547 O.3     1  LIG1       -0.4526
      4 O           1.3760    0.8052   -3.4747 O.2     1  LIG1       -0.2697
      5 O          -5.8755    3.0370    1.7402 O.3     1  LIG1       -0.4526
      6 O           0.8200   -5.3311    2.4925 O.3     1  LIG1       -0.4951
      7 N          -0.0894    0.1464   -1.0023 N.4     1  LIG1        0.2481
      8 N           3.4339    0.2690   -2.6111 N.am    1  LIG1       -0.2971
      9 C          -2.0246   -1.1694   -1.5041 C.3     1  LIG1        0.0574
     10 C          -2.3679    0.3061   -1.7382 C.3     1  LIG1        0.0378
     11 C          -0.5032   -1.2872   -1.3429 C.3     1  LIG1        0.0143
     12 C          -1.0083    0.9945   -1.8590 C.3     1  LIG1       -0.0230
     13 C          -3.2480    0.9964   -0.7058 C.ar    1  LIG1       -0.0347
     14 C          -0.1088   -2.3331   -0.2988 C.ar    1  LIG1        0.0011
     15 C           1.4043    0.4377   -1.1051 C.3     1  LIG1        0.0468
     16 C          -2.2012   -1.9533   -2.7927 C.2     1  LIG1        0.0513
     17 C          -4.0217    2.0900   -1.1537 C.ar    1  LIG1       -0.0125
     18 C           2.0562    0.5011   -2.4981 C.2     1  LIG1        0.2608
     19 C          -3.3473    0.5991    0.6439 C.ar    1  LIG1       -0.0544
     20 C          -0.1411   -3.6882   -0.6857 C.ar    1  LIG1       -0.0498
     21 C           0.2568   -2.0480    1.0238 C.ar    1  LIG1       -0.0498
     22 C          -4.8696    2.7132   -0.2653 C.ar    1  LIG1        0.1665
     23 C          -4.2163    1.2599    1.5272 C.ar    1  LIG1       -0.0159
     24 C          -4.9688    2.3066    1.0404 C.ar    1  LIG1        0.1662
     25 C           0.1596   -4.7179    0.2134 C.ar    1  LIG1       -0.0195
     26 C           0.5814   -3.0806    1.9156 C.ar    1  LIG1       -0.0195
     27 C           4.3495    0.5396   -1.4900 C.3     1  LIG1        0.0148
     28 C           4.0657    0.3665   -3.9460 C.3     1  LIG1        0.0148
     29 C           0.5112   -4.4187    1.5218 C.ar    1  LIG1        0.1201
     30 C           4.5869   -0.6156   -0.5128 C.3     1  LIG1       -0.0374
     31 C           3.3321   -0.2689   -5.1374 C.3     1  LIG1       -0.0374
     32 C          -6.3846    3.9033    0.7031 C.3     1  LIG1        0.2332
     33 C           4.8640   -1.9591   -1.1802 C.3     1  LIG1       -0.0545
     34 C           4.1912   -0.3451   -6.4068 C.3     1  LIG1       -0.0545
     35 C           5.0623   -3.0476   -0.1349 C.3     1  LIG1       -0.0652
     36 C           4.6212    1.0192   -6.9311 C.3     1  LIG1       -0.0652
     37 C           0.2941   -6.6405    2.2973 C.3     1  LIG1        0.0788
     38 H          -0.3869    0.3154   -0.0402 H       1  LIG1        0.2045
     39 H          -2.6024   -1.6393   -0.7018 H       1  LIG1        0.0427
     40 H          -2.9058    0.4276   -2.6883 H       1  LIG1        0.0409
     41 H           0.0511   -1.5210   -2.2625 H       1  LIG1        0.0911
     42 H          -0.6858    0.9637   -2.8956 H       1  LIG1        0.0821
     43 H          -0.9688    2.0182   -1.4752 H       1  LIG1        0.0821
     44 H           1.8832   -0.3275   -0.5020 H       1  LIG1        0.0913
     45 H           1.5471    1.4124   -0.6246 H       1  LIG1        0.0913
     46 H          -3.9912    2.4242   -2.1871 H       1  LIG1        0.0658
     47 H          -2.7865   -0.2497    1.0275 H       1  LIG1        0.0622
     48 H          -0.4366   -3.9670   -1.6993 H       1  LIG1        0.0623
     49 H           0.2959   -1.0368    1.4116 H       1  LIG1        0.0623
     50 H          -4.3197    0.9394    2.5581 H       1  LIG1        0.0655
     51 H           0.1012   -5.7409   -0.1489 H       1  LIG1        0.0654
     52 H           0.8662   -2.8466    2.9391 H       1  LIG1        0.0654
     53 H           3.9700    1.4069   -0.9364 H       1  LIG1        0.0464
     54 H           5.3192    0.8491   -1.8994 H       1  LIG1        0.0464
     55 H           5.0448   -0.1255   -3.8648 H       1  LIG1        0.0464
     56 H           4.2395    1.4333   -4.1355 H       1  LIG1        0.0464
     57 H           3.7406   -0.7193    0.1703 H       1  LIG1        0.0280
     58 H           5.4386   -0.3450    0.1240 H       1  LIG1        0.0280
     59 H           2.4398    0.3067   -5.3955 H       1  LIG1        0.0280
     60 H           2.9999   -1.2770   -4.8700 H       1  LIG1        0.0280
     61 H          -7.4494    3.6832    0.5497 H       1  LIG1        0.1166
     62 H          -6.2862    4.9437    1.0343 H       1  LIG1        0.1166
     63 H           5.7588   -1.8884   -1.8090 H       1  LIG1        0.0263
     64 H           4.0269   -2.2441   -1.8266 H       1  LIG1        0.0263
     65 H           3.6058   -0.8464   -7.1879 H       1  LIG1        0.0263
     66 H           5.0768   -0.9641   -6.2263 H       1  LIG1        0.0263
     67 H           5.9095   -2.8151    0.5192 H       1  LIG1        0.0230
     68 H           5.2577   -4.0098   -0.6178 H       1  LIG1        0.0230
     69 H           4.1689   -3.1567    0.4894 H       1  LIG1        0.0230
     70 H           3.7591    1.6815   -7.0639 H       1  LIG1        0.0230
     71 H           5.1154    0.9110   -7.9016 H       1  LIG1        0.0230
     72 H           5.3276    1.5031   -6.2516 H       1  LIG1        0.0230
     73 H           0.4613   -7.2086    3.2176 H       1  LIG1        0.0660
     74 H           0.8190   -7.1598    1.4873 H       1  LIG1        0.0660
     75 H          -0.7863   -6.6143    2.1135 H       1  LIG1        0.0660
@<TRIPOS>BOND
     1     1    16   ar
     2     2    16   ar
     3     3    22    1
     4     3    32    1
     5     4    18    2
     6     5    24    1
     7     5    32    1
     8     6    29    1
     9     6    37    1
    10     7    11    1
    11     7    12    1
    12     7    15    1
    13     8    18   am
    14     8    27    1
    15     8    28    1
    16     9    10    1
    17     9    11    1
    18     9    16    1
    19    10    12    1
    20    10    13    1
    21    11    14    1
    22    13    17   ar
    23    13    19   ar
    24    14    20   ar
    25    14    21   ar
    26    15    18    1
    27    17    22   ar
    28    19    23   ar
    29    20    25   ar
    30    21    26   ar
    31    22    24   ar
    32    23    24   ar
    33    25    29   ar
    34    26    29   ar
    35    27    30    1
    36    28    31    1
    37    30    33    1
    38    31    34    1
    39    33    35    1
    40    34    36    1
    41     7    38    1
    42     9    39    1
    43    10    40    1
    44    11    41    1
    45    12    42    1
    46    12    43    1
    47    15    44    1
    48    15    45    1
    49    17    46    1
    50    19    47    1
    51    20    48    1
    52    21    49    1
    53    23    50    1
    54    25    51    1
    55    26    52    1
    56    27    53    1
    57    27    54    1
    58    28    55    1
    59    28    56    1
    60    30    57    1
    61    30    58    1
    62    31    59    1
    63    31    60    1
    64    32    61    1
    65    32    62    1
    66    33    63    1
    67    33    64    1
    68    34    65    1
    69    34    66    1
    70    35    67    1
    71    35    68    1
    72    35    69    1
    73    36    70    1
    74    36    71    1
    75    36    72    1
    76    37    73    1
    77    37    74    1
    78    37    75    1
@<TRIPOS>MOLECULE
159594
 75 78 0 0 0
SMALL
GASTEIGER

@<TRIPOS>ATOM
      1 O          -1.8854   -1.4068   -4.0559 O.co2   1  LIG1       -0.5493
      2 O          -2.2878   -3.3020   -2.8430 O.co2   1  LIG1       -0.5493
      3 O          -5.5500    3.6604   -0.6824 O.3     1  LIG1       -0.4526
      4 O           1.6513   -0.4527   -3.4091 O.2     1  LIG1       -0.2697
      5 O          -5.6430    2.9817    1.6289 O.3     1  LIG1       -0.4526
      6 O           1.0880   -5.3382    2.4976 O.3     1  LIG1       -0.4951
      7 N          -0.0018   -0.0932   -1.0629 N.4     1  LIG1        0.2481
      8 N           3.5174    0.5352   -2.5419 N.am    1  LIG1       -0.2971
      9 C          -1.9819   -1.2839   -1.7126 C.3     1  LIG1        0.0574
     10 C          -2.2161    0.2183   -1.9199 C.3     1  LIG1        0.0378
     11 C          -0.4802   -1.5072   -1.4568 C.3     1  LIG1        0.0143
     12 C          -0.8113    0.8102   -1.9694 C.3     1  LIG1       -0.0230
     13 C          -3.0824    0.9221   -0.8778 C.ar    1  LIG1       -0.0347
     14 C          -0.0782   -2.5241   -0.3916 C.ar    1  LIG1        0.0011
     15 C           1.4962    0.1785   -1.0860 C.3     1  LIG1        0.0468
     16 C          -2.0838   -2.0728   -3.0069 C.2     1  LIG1        0.0513
     17 C          -3.8816    2.0001   -1.3156 C.ar    1  LIG1       -0.0125
     18 C           2.2178    0.0394   -2.4376 C.2     1  LIG1        0.2608
     19 C          -3.1338    0.5516    0.4842 C.ar    1  LIG1       -0.0544
     20 C           1.1892   -3.1332   -0.4833 C.ar    1  LIG1       -0.0498
     21 C          -0.8967   -2.8958    0.6817 C.ar    1  LIG1       -0.0498
     22 C          -4.7059    2.6310   -0.4081 C.ar    1  LIG1        0.1665
     23 C          -3.9779    1.2159    1.3858 C.ar    1  LIG1       -0.0159
     24 C          -4.7559    2.2465    0.9070 C.ar    1  LIG1        0.1662
     25 C           1.6272   -4.0650    0.4659 C.ar    1  LIG1       -0.0195
     26 C          -0.4632   -3.8388    1.6219 C.ar    1  LIG1       -0.0195
     27 C           4.1383    0.5149   -3.8728 C.3     1  LIG1        0.0148
     28 C           4.4175    0.7356   -1.4016 C.3     1  LIG1        0.0148
     29 C           0.7952   -4.4301    1.5193 C.ar    1  LIG1        0.1201
     30 C           3.5229    1.5006   -4.8756 C.3     1  LIG1       -0.0374
     31 C           5.2487   -0.5196   -1.1120 C.3     1  LIG1       -0.0374
     32 C          -6.1936    3.8290    0.5974 C.3     1  LIG1        0.2332
     33 C           3.7530    2.9785   -4.5474 C.3     1  LIG1       -0.0545
     34 C           6.3368   -0.2921   -0.0622 C.3     1  LIG1       -0.0545
     35 C           2.8275    3.5263   -3.4716 C.3     1  LIG1       -0.0652
     36 C           5.7853   -0.0585    1.3344 C.3     1  LIG1       -0.0652
     37 C           2.2365   -6.1518    2.2900 C.3     1  LIG1        0.0788
     38 H          -0.3299    0.0494   -0.1047 H       1  LIG1        0.2045
     39 H          -2.6741   -1.7249   -0.9928 H       1  LIG1        0.0427
     40 H          -2.7129    0.4108   -2.8788 H       1  LIG1        0.0409
     41 H           0.0662   -1.7654   -2.3697 H       1  LIG1        0.0911
     42 H          -0.3930    0.7597   -2.9778 H       1  LIG1        0.0821
     43 H          -0.7309    1.8313   -1.5829 H       1  LIG1        0.0821
     44 H           1.9546   -0.4834   -0.3478 H       1  LIG1        0.0913
     45 H           1.5981    1.2127   -0.7401 H       1  LIG1        0.0913
     46 H          -3.8880    2.3199   -2.3545 H       1  LIG1        0.0658
     47 H          -2.5488   -0.2788    0.8642 H       1  LIG1        0.0622
     48 H           1.8449   -2.9110   -1.3249 H       1  LIG1        0.0623
     49 H          -1.9058   -2.5126    0.7953 H       1  LIG1        0.0623
     50 H          -4.0395    0.9152    2.4264 H       1  LIG1        0.0655
     51 H           2.6124   -4.5018    0.3399 H       1  LIG1        0.0654
     52 H          -1.1321   -4.1413    2.4253 H       1  LIG1        0.0654
     53 H           4.0480   -0.5045   -4.2675 H       1  LIG1        0.0464
     54 H           5.2099    0.7265   -3.7784 H       1  LIG1        0.0464
     55 H           3.8358    1.0071   -0.5180 H       1  LIG1        0.0464
     56 H           5.0667    1.5880   -1.6339 H       1  LIG1        0.0464
     57 H           2.4520    1.3149   -5.0110 H       1  LIG1        0.0280
     58 H           3.9913    1.3019   -5.8483 H       1  LIG1        0.0280
     59 H           5.7392   -0.8551   -2.0344 H       1  LIG1        0.0280
     60 H           4.5897   -1.3401   -0.8025 H       1  LIG1        0.0280
     61 H          -7.2608    3.6021    0.4868 H       1  LIG1        0.1166
     62 H          -6.0872    4.8741    0.9083 H       1  LIG1        0.1166
     63 H           3.5781    3.5574   -5.4627 H       1  LIG1        0.0263
     64 H           4.7974    3.1488   -4.2628 H       1  LIG1        0.0263
     65 H           6.9675    0.5556   -0.3547 H       1  LIG1        0.0263
     66 H           6.9868   -1.1749   -0.0367 H       1  LIG1        0.0263
     67 H           1.7809    3.2946   -3.6935 H       1  LIG1        0.0230
     68 H           2.9267    4.6151   -3.4139 H       1  LIG1        0.0230
     69 H           3.0691    3.1277   -2.4840 H       1  LIG1        0.0230
     70 H           5.1984    0.8629    1.3858 H       1  LIG1        0.0230
     71 H           6.6076    0.0296    2.0517 H       1  LIG1        0.0230
     72 H           5.1503   -0.8928    1.6484 H       1  LIG1        0.0230
     73 H           2.2495   -6.9185    3.0708 H       1  LIG1        0.0660
     74 H           3.1522   -5.5597    2.3873 H       1  LIG1        0.0660
     75 H           2.1985   -6.6642    1.3226 H       1  LIG1        0.0660
@<TRIPOS>BOND
     1     1    16   ar
     2     2    16   ar
     3     3    22    1
     4     3    32    1
     5     4    18    2
     6     5    24    1
     7     5    32    1
     8     6    29    1
     9     6    37    1
    10     7    11    1
    11     7    12    1
    12     7    15    1
    13     8    18   am
    14     8    27    1
    15     8    28    1
    16     9    10    1
    17     9    11    1
    18     9    16    1
    19    10    12    1
    20    10    13    1
    21    11    14    1
    22    13    17   ar
    23    13    19   ar
    24    14    20   ar
    25    14    21   ar
    26    15    18    1
    27    17    22   ar
    28    19    23   ar
    29    20    25   ar
    30    21    26   ar
    31    22    24   ar
    32    23    24   ar
    33    25    29   ar
    34    26    29   ar
    35    27    30    1
    36    28    31    1
    37    30    33    1
    38    31    34    1
    39    33    35    1
    40    34    36    1
    41     7    38    1
    42     9    39    1
    43    10    40    1
    44    11    41    1
    45    12    42    1
    46    12    43    1
    47    15    44    1
    48    15    45    1
    49    17    46    1
    50    19    47    1
    51    20    48    1
    52    21    49    1
    53    23    50    1
    54    25    51    1
    55    26    52    1
    56    27    53    1
    57    27    54    1
    58    28    55    1
    59    28    56    1
    60    30    57    1
    61    30    58    1
    62    31    59    1
    63    31    60    1
    64    32    61    1
    65    32    62    1
    66    33    63    1
    67    33    64    1
    68    34    65    1
    69    34    66    1
    70    35    67    1
    71    35    68    1
    72    35    69    1
    73    36    70    1
    74    36    71    1
    75    36    72    1
    76    37    73    1
    77    37    74    1
    78    37    75    1
@<TRIPOS>MOLECULE
159594
 75 78 0 0 0
SMALL
GASTEIGER

@<TRIPOS>ATOM
      1 O          -1.3970   -1.1984   -3.9129 O.co2   1  LIG1       -0.5493
      2 O          -2.2607   -3.0056   -2.8132 O.co2   1  LIG1       -0.5493
      3 O          -3.4216    2.8247    2.3531 O.3     1  LIG1       -0.4526
      4 O           2.5533    2.3963   -1.2903 O.2     1  LIG1       -0.2697
      5 O          -5.7447    2.6763    1.7164 O.3     1  LIG1       -0.4526
      6 O           1.0936   -5.3275    2.4763 O.3     1  LIG1       -0.4951
      7 N           0.2484    0.0368   -0.8925 N.4     1  LIG1        0.2481
      8 N           2.2931    1.7495    0.9039 N.am    1  LIG1       -0.2971
      9 C          -1.7565   -1.0673   -1.6060 C.3     1  LIG1        0.0574
     10 C          -1.9342    0.4424   -1.8127 C.3     1  LIG1        0.0378
     11 C          -0.2724   -1.3259   -1.3501 C.3     1  LIG1        0.0143
     12 C          -0.5121    1.0019   -1.7769 C.3     1  LIG1       -0.0230
     13 C          -2.9325    1.0303   -0.8221 C.ar    1  LIG1       -0.0347
     14 C           0.0518   -2.4043   -0.3326 C.ar    1  LIG1        0.0011
     15 C           1.7543    0.1708   -0.9988 C.3     1  LIG1        0.0468
     16 C          -1.8478   -1.8270   -2.9155 C.2     1  LIG1        0.0513
     17 C          -2.5811    1.6615    0.3809 C.ar    1  LIG1       -0.0125
     18 C           2.2628    1.5178   -0.4720 C.2     1  LIG1        0.2608
     19 C          -4.3086    0.9369   -1.1668 C.ar    1  LIG1       -0.0544
     20 C           0.8800   -3.4705   -0.7231 C.ar    1  LIG1       -0.0498
     21 C          -0.4181   -2.3743    0.9867 C.ar    1  LIG1       -0.0498
     22 C          -3.5948    2.1783    1.1674 C.ar    1  LIG1        0.1665
     23 C          -5.3100    1.4752   -0.3539 C.ar    1  LIG1       -0.0159
     24 C          -4.9191    2.0927    0.8092 C.ar    1  LIG1        0.1662
     25 C           1.2532   -4.4670    0.1821 C.ar    1  LIG1       -0.0195
     26 C          -0.0383   -3.3725    1.8910 C.ar    1  LIG1       -0.0195
     27 C           2.5536    3.1298    1.3505 C.3     1  LIG1        0.0148
     28 C           2.0428    0.7307    1.9377 C.3     1  LIG1        0.0148
     29 C           0.7975   -4.4209    1.4963 C.ar    1  LIG1        0.1201
     30 C           1.2959    4.0041    1.4328 C.3     1  LIG1       -0.0374
     31 C           3.1191    0.6104    3.0288 C.3     1  LIG1       -0.0374
     32 C          -4.7916    3.1394    2.6927 C.3     1  LIG1        0.2332
     33 C           0.9084    4.6299    0.0916 C.3     1  LIG1       -0.0545
     34 C           4.5687    0.5410    2.5393 C.3     1  LIG1       -0.0545
     35 C          -0.2037    5.6546    0.2436 C.3     1  LIG1       -0.0652
     36 C           4.8709   -0.6725    1.6777 C.3     1  LIG1       -0.0652
     37 C           1.7747   -6.5088    2.0654 C.3     1  LIG1        0.0788
     38 H          -0.0431    0.1737    0.0766 H       1  LIG1        0.2045
     39 H          -2.4303   -1.4937   -0.8562 H       1  LIG1        0.0427
     40 H          -2.3430    0.6932   -2.8009 H       1  LIG1        0.0409
     41 H           0.3118   -1.5338   -2.2579 H       1  LIG1        0.0911
     42 H          -0.0449    0.9728   -2.7678 H       1  LIG1        0.0821
     43 H          -0.4276    2.0052   -1.3571 H       1  LIG1        0.0821
     44 H           2.0218    0.0787   -2.0580 H       1  LIG1        0.0913
     45 H           2.2232   -0.6612   -0.4711 H       1  LIG1        0.0913
     46 H          -1.5589    1.7794    0.7147 H       1  LIG1        0.0658
     47 H          -4.6033    0.4431   -2.0948 H       1  LIG1        0.0622
     48 H           1.2257   -3.5525   -1.7542 H       1  LIG1        0.0623
     49 H          -1.1027   -1.6003    1.3247 H       1  LIG1        0.0623
     50 H          -6.3558    1.4100   -0.6336 H       1  LIG1        0.0655
     51 H           1.8883   -5.2694   -0.1793 H       1  LIG1        0.0654
     52 H          -0.4176   -3.3510    2.9106 H       1  LIG1        0.0654
     53 H           3.2932    3.5909    0.6854 H       1  LIG1        0.0464
     54 H           3.0198    3.1019    2.3384 H       1  LIG1        0.0464
     55 H           1.9123   -0.2527    1.4864 H       1  LIG1        0.0464
     56 H           1.0833    0.9816    2.4053 H       1  LIG1        0.0464
     57 H           1.5017    4.8176    2.1399 H       1  LIG1        0.0280
     58 H           0.4534    3.4325    1.8394 H       1  LIG1        0.0280
     59 H           2.9003   -0.2806    3.6313 H       1  LIG1        0.0280
     60 H           3.0308    1.4567    3.7206 H       1  LIG1        0.0280
     61 H          -4.8877    4.2271    2.7891 H       1  LIG1        0.1166
     62 H          -5.0286    2.6786    3.6586 H       1  LIG1        0.1166
     63 H           0.5726    3.8572   -0.6031 H       1  LIG1        0.0263
     64 H           1.7798    5.1189   -0.3595 H       1  LIG1        0.0263
     65 H           5.2261    0.5150    3.4172 H       1  LIG1        0.0263
     66 H           4.8319    1.4504    1.9882 H       1  LIG1        0.0263
     67 H          -1.1030    5.1990    0.6691 H       1  LIG1        0.0230
     68 H          -0.4635    6.0748   -0.7334 H       1  LIG1        0.0230
     69 H           0.1092    6.4785    0.8927 H       1  LIG1        0.0230
     70 H           4.6368   -1.6000    2.2086 H       1  LIG1        0.0230
     71 H           5.9351   -0.6897    1.4196 H       1  LIG1        0.0230
     72 H           4.3048   -0.6528    0.7435 H       1  LIG1        0.0230
     73 H           1.8610   -7.1664    2.9356 H       1  LIG1        0.0660
     74 H           2.7885   -6.2770    1.7221 H       1  LIG1        0.0660
     75 H           1.2107   -7.0471    1.2958 H       1  LIG1        0.0660
@<TRIPOS>BOND
     1     1    16   ar
     2     2    16   ar
     3     3    22    1
     4     3    32    1
     5     4    18    2
     6     5    24    1
     7     5    32    1
     8     6    29    1
     9     6    37    1
    10     7    11    1
    11     7    12    1
    12     7    15    1
    13     8    18   am
    14     8    27    1
    15     8    28    1
    16     9    10    1
    17     9    11    1
    18     9    16    1
    19    10    12    1
    20    10    13    1
    21    11    14    1
    22    13    17   ar
    23    13    19   ar
    24    14    20   ar
    25    14    21   ar
    26    15    18    1
    27    17    22   ar
    28    19    23   ar
    29    20    25   ar
    30    21    26   ar
    31    22    24   ar
    32    23    24   ar
    33    25    29   ar
    34    26    29   ar
    35    27    30    1
    36    28    31    1
    37    30    33    1
    38    31    34    1
    39    33    35    1
    40    34    36    1
    41     7    38    1
    42     9    39    1
    43    10    40    1
    44    11    41    1
    45    12    42    1
    46    12    43    1
    47    15    44    1
    48    15    45    1
    49    17    46    1
    50    19    47    1
    51    20    48    1
    52    21    49    1
    53    23    50    1
    54    25    51    1
    55    26    52    1
    56    27    53    1
    57    27    54    1
    58    28    55    1
    59    28    56    1
    60    30    57    1
    61    30    58    1
    62    31    59    1
    63    31    60    1
    64    32    61    1
    65    32    62    1
    66    33    63    1
    67    33    64    1
    68    34    65    1
    69    34    66    1
    70    35    67    1
    71    35    68    1
    72    35    69    1
    73    36    70    1
    74    36    71    1
    75    36    72    1
    76    37    73    1
    77    37    74    1
    78    37    75    1
@<TRIPOS>MOLECULE
159594
 75 78 0 0 0
SMALL
GASTEIGER

@<TRIPOS>ATOM
      1 O          -1.4809   -1.4372   -3.9643 O.co2   1  LIG1       -0.5493
      2 O          -2.5367   -3.1315   -2.8548 O.co2   1  LIG1       -0.5493
      3 O          -6.3128    0.3776    0.8656 O.3     1  LIG1       -0.4526
      4 O           1.0624    2.5811   -0.5485 O.2     1  LIG1       -0.2697
      5 O          -5.8156    2.5492    1.7884 O.3     1  LIG1       -0.4526
      6 O           1.0758   -5.3060    2.4154 O.3     1  LIG1       -0.4951
      7 N           0.0230    0.1177   -1.1907 N.4     1  LIG1        0.2481
      8 N           3.2715    1.9308   -0.4711 N.am    1  LIG1       -0.2971
      9 C          -1.9052   -1.2134   -1.6700 C.3     1  LIG1        0.0574
     10 C          -2.2311    0.2660   -1.9593 C.3     1  LIG1        0.0378
     11 C          -0.4029   -1.3276   -1.4052 C.3     1  LIG1        0.0143
     12 C          -0.8403    0.8643   -2.1904 C.3     1  LIG1       -0.0230
     13 C          -3.0925    0.9114   -0.8685 C.ar    1  LIG1       -0.0347
     14 C          -0.0383   -2.3014   -0.2930 C.ar    1  LIG1        0.0011
     15 C           1.5063    0.3678   -1.3519 C.3     1  LIG1        0.0468
     16 C          -2.0088   -2.0001   -2.9640 C.2     1  LIG1        0.0513
     17 C          -4.2885    0.2620   -0.4906 C.ar    1  LIG1       -0.0125
     18 C           1.9274    1.7305   -0.7735 C.2     1  LIG1        0.2608
     19 C          -2.8262    2.1884   -0.3159 C.ar    1  LIG1       -0.0544
     20 C          -0.1033   -3.6748   -0.5903 C.ar    1  LIG1       -0.0498
     21 C           0.3882   -1.9332    0.9913 C.ar    1  LIG1       -0.0498
     22 C          -5.1312    0.8758    0.4142 C.ar    1  LIG1        0.1665
     23 C          -3.7058    2.7915    0.5955 C.ar    1  LIG1       -0.0159
     24 C          -4.8484    2.1092    0.9410 C.ar    1  LIG1        0.1662
     25 C           0.2693   -4.6389    0.3471 C.ar    1  LIG1       -0.0195
     26 C           0.7749   -2.9070    1.9289 C.ar    1  LIG1       -0.0195
     27 C           3.6970    3.2216    0.0843 C.3     1  LIG1        0.0148
     28 C           4.3449    1.0473   -0.9501 C.3     1  LIG1        0.0148
     29 C           0.7237   -4.2630    1.6072 C.ar    1  LIG1        0.1201
     30 C           3.0144    3.7007    1.3739 C.3     1  LIG1       -0.0374
     31 C           4.9116    0.1763    0.1708 C.3     1  LIG1       -0.0374
     32 C          -6.7511    1.4515    1.7220 C.3     1  LIG1        0.2332
     33 C           3.2163    2.8130    2.6032 C.3     1  LIG1       -0.0545
     34 C           6.0349   -0.7244   -0.3413 C.3     1  LIG1       -0.0545
     35 C           2.2841    1.6132    2.6600 C.3     1  LIG1       -0.0652
     36 C           6.5978   -1.5996    0.7672 C.3     1  LIG1       -0.0652
     37 C           1.6084   -4.9899    3.6931 C.3     1  LIG1        0.0788
     38 H          -0.2788    0.4331   -0.2621 H       1  LIG1        0.2045
     39 H          -2.5118   -1.6707   -0.8824 H       1  LIG1        0.0427
     40 H          -2.8165    0.3953   -2.8799 H       1  LIG1        0.0409
     41 H           0.1914   -1.6459   -2.2744 H       1  LIG1        0.0911
     42 H          -0.4464    0.6455   -3.1886 H       1  LIG1        0.0821
     43 H          -0.7517    1.9366   -2.0238 H       1  LIG1        0.0821
     44 H           1.7452    0.3167   -2.4182 H       1  LIG1        0.0913
     45 H           2.0222   -0.4251   -0.8058 H       1  LIG1        0.0913
     46 H          -4.5769   -0.6969   -0.9158 H       1  LIG1        0.0658
     47 H          -1.9529    2.7709   -0.5958 H       1  LIG1        0.0622
     48 H          -0.4558   -4.0187   -1.5654 H       1  LIG1        0.0623
     49 H           0.4384   -0.8943    1.3012 H       1  LIG1        0.0623
     50 H          -3.5065    3.7787    0.9986 H       1  LIG1        0.0655
     51 H           0.2011   -5.6927    0.0845 H       1  LIG1        0.0654
     52 H           1.1069   -2.5742    2.9072 H       1  LIG1        0.0654
     53 H           3.5362    3.9697   -0.7017 H       1  LIG1        0.0464
     54 H           4.7775    3.1822    0.2696 H       1  LIG1        0.0464
     55 H           5.1305    1.6725   -1.3919 H       1  LIG1        0.0464
     56 H           3.9743    0.4115   -1.7594 H       1  LIG1        0.0464
     57 H           1.9474    3.8884    1.2209 H       1  LIG1        0.0280
     58 H           3.4491    4.6823    1.6073 H       1  LIG1        0.0280
     59 H           4.1126   -0.4404    0.5992 H       1  LIG1        0.0280
     60 H           5.2897    0.8103    0.9815 H       1  LIG1        0.0280
     61 H          -6.8990    1.0572    2.7339 H       1  LIG1        0.1166
     62 H          -7.7101    1.8291    1.3482 H       1  LIG1        0.1166
     63 H           3.0189    3.4247    3.4927 H       1  LIG1        0.0263
     64 H           4.2588    2.4848    2.6752 H       1  LIG1        0.0263
     65 H           6.8416   -0.1117   -0.7603 H       1  LIG1        0.0263
     66 H           5.6603   -1.3643   -1.1486 H       1  LIG1        0.0263
     67 H           1.2418    1.9132    2.5111 H       1  LIG1        0.0230
     68 H           2.3572    1.1289    3.6391 H       1  LIG1        0.0230
     69 H           2.5392    0.8649    1.9080 H       1  LIG1        0.0230
     70 H           7.0130   -0.9899    1.5760 H       1  LIG1        0.0230
     71 H           7.3978   -2.2368    0.3774 H       1  LIG1        0.0230
     72 H           5.8221   -2.2474    1.1878 H       1  LIG1        0.0230
     73 H           1.8515   -5.9318    4.1946 H       1  LIG1        0.0660
     74 H           0.8719   -4.4644    4.3088 H       1  LIG1        0.0660
     75 H           2.5341   -4.4124    3.6015 H       1  LIG1        0.0660
@<TRIPOS>BOND
     1     1    16   ar
     2     2    16   ar
     3     3    22    1
     4     3    32    1
     5     4    18    2
     6     5    24    1
     7     5    32    1
     8     6    29    1
     9     6    37    1
    10     7    11    1
    11     7    12    1
    12     7    15    1
    13     8    18   am
    14     8    27    1
    15     8    28    1
    16     9    10    1
    17     9    11    1
    18     9    16    1
    19    10    12    1
    20    10    13    1
    21    11    14    1
    22    13    17   ar
    23    13    19   ar
    24    14    20   ar
    25    14    21   ar
    26    15    18    1
    27    17    22   ar
    28    19    23   ar
    29    20    25   ar
    30    21    26   ar
    31    22    24   ar
    32    23    24   ar
    33    25    29   ar
    34    26    29   ar
    35    27    30    1
    36    28    31    1
    37    30    33    1
    38    31    34    1
    39    33    35    1
    40    34    36    1
    41     7    38    1
    42     9    39    1
    43    10    40    1
    44    11    41    1
    45    12    42    1
    46    12    43    1
    47    15    44    1
    48    15    45    1
    49    17    46    1
    50    19    47    1
    51    20    48    1
    52    21    49    1
    53    23    50    1
    54    25    51    1
    55    26    52    1
    56    27    53    1
    57    27    54    1
    58    28    55    1
    59    28    56    1
    60    30    57    1
    61    30    58    1
    62    31    59    1
    63    31    60    1
    64    32    61    1
    65    32    62    1
    66    33    63    1
    67    33    64    1
    68    34    65    1
    69    34    66    1
    70    35    67    1
    71    35    68    1
    72    35    69    1
    73    36    70    1
    74    36    71    1
    75    36    72    1
    76    37    73    1
    77    37    74    1
    78    37    75    1
@<TRIPOS>MOLECULE
159594
 75 78 0 0 0
SMALL
GASTEIGER

@<TRIPOS>ATOM
      1 O          -1.4763   -1.4123   -3.9732 O.co2   1  LIG1       -0.5493
      2 O          -2.4888   -3.1340   -2.8665 O.co2   1  LIG1       -0.5493
      3 O          -6.3062    0.3802    0.8651 O.3     1  LIG1       -0.4526
      4 O           1.0690    2.5889   -0.5401 O.2     1  LIG1       -0.2697
      5 O          -5.8150    2.5537    1.7865 O.3     1  LIG1       -0.4526
      6 O           0.9669   -5.3004    2.4504 O.3     1  LIG1       -0.4951
      7 N           0.0252    0.1263   -1.1836 N.4     1  LIG1        0.2481
      8 N           3.2776    1.9347   -0.4618 N.am    1  LIG1       -0.2971
      9 C          -1.9022   -1.2017   -1.6789 C.3     1  LIG1        0.0574
     10 C          -2.2248    0.2796   -1.9626 C.3     1  LIG1        0.0378
     11 C          -0.4016   -1.3175   -1.4055 C.3     1  LIG1        0.0143
     12 C          -0.8315    0.8764   -2.1862 C.3     1  LIG1       -0.0230
     13 C          -3.0885    0.9224   -0.8717 C.ar    1  LIG1       -0.0347
     14 C          -0.0483   -2.2933   -0.2921 C.ar    1  LIG1        0.0011
     15 C           1.5102    0.3709   -1.3339 C.3     1  LIG1        0.0468
     16 C          -1.9903   -1.9874   -2.9745 C.2     1  LIG1        0.0513
     17 C          -4.2825    0.2702   -0.4928 C.ar    1  LIG1       -0.0125
     18 C           1.9327    1.7360   -0.7622 C.2     1  LIG1        0.2608
     19 C          -2.8261    2.2008   -0.3201 C.ar    1  LIG1       -0.0544
     20 C          -0.0573   -3.6641   -0.6094 C.ar    1  LIG1       -0.0498
     21 C           0.2999   -1.9288    1.0164 C.ar    1  LIG1       -0.0498
     22 C          -5.1265    0.8819    0.4123 C.ar    1  LIG1        0.1665
     23 C          -3.7069    2.8018    0.5916 C.ar    1  LIG1       -0.0159
     24 C          -4.8473    2.1164    0.9384 C.ar    1  LIG1        0.1662
     25 C           0.2870   -4.6304    0.3360 C.ar    1  LIG1       -0.0195
     26 C           0.6518   -2.9049    1.9651 C.ar    1  LIG1       -0.0195
     27 C           3.7060    3.2247    0.0927 C.3     1  LIG1        0.0148
     28 C           4.3491    1.0496   -0.9428 C.3     1  LIG1        0.0148
     29 C           0.6429   -4.2586    1.6284 C.ar    1  LIG1        0.1201
     30 C           3.0219    3.7074    1.3801 C.3     1  LIG1       -0.0374
     31 C           4.9177    0.1780    0.1767 C.3     1  LIG1       -0.0374
     32 C          -6.7480    1.4540    1.7199 C.3     1  LIG1        0.2332
     33 C           3.2161    2.8192    2.6103 C.3     1  LIG1       -0.0545
     34 C           6.0393   -0.7231   -0.3385 C.3     1  LIG1       -0.0545
     35 C           2.2825    1.6201    2.6626 C.3     1  LIG1       -0.0652
     36 C           6.6033   -1.6006    0.7676 C.3     1  LIG1       -0.0652
     37 C           1.0777   -5.0168    3.8378 C.3     1  LIG1        0.0788
     38 H          -0.2802    0.4410   -0.2563 H       1  LIG1        0.2045
     39 H          -2.5135   -1.6625   -0.8971 H       1  LIG1        0.0427
     40 H          -2.8070    0.4131   -2.8845 H       1  LIG1        0.0409
     41 H           0.1979   -1.6332   -2.2722 H       1  LIG1        0.0911
     42 H          -0.4329    0.6589   -3.1828 H       1  LIG1        0.0821
     43 H          -0.7422    1.9481   -2.0169 H       1  LIG1        0.0821
     44 H           1.7572    0.3108   -2.3979 H       1  LIG1        0.0913
     45 H           2.0179   -0.4199   -0.7765 H       1  LIG1        0.0913
     46 H          -4.5692   -0.6894   -0.9174 H       1  LIG1        0.0658
     47 H          -1.9550    2.7860   -0.6013 H       1  LIG1        0.0622
     48 H          -0.3506   -4.0031   -1.6056 H       1  LIG1        0.0623
     49 H           0.3098   -0.8924    1.3383 H       1  LIG1        0.0623
     50 H          -3.5103    3.7897    0.9942 H       1  LIG1        0.0655
     51 H           0.2603   -5.6823    0.0590 H       1  LIG1        0.0654
     52 H           0.9301   -2.5768    2.9616 H       1  LIG1        0.0654
     53 H           3.5498    3.9722   -0.6947 H       1  LIG1        0.0464
     54 H           4.7859    3.1816    0.2809 H       1  LIG1        0.0464
     55 H           5.1344    1.6739   -1.3866 H       1  LIG1        0.0464
     56 H           3.9761    0.4140   -1.7510 H       1  LIG1        0.0464
     57 H           1.9562    3.8998    1.2240 H       1  LIG1        0.0280
     58 H           3.4602    4.6871    1.6144 H       1  LIG1        0.0280
     59 H           4.1193   -0.4383    0.6068 H       1  LIG1        0.0280
     60 H           5.2981    0.8117    0.9867 H       1  LIG1        0.0280
     61 H          -6.8964    1.0601    2.7319 H       1  LIG1        0.1166
     62 H          -7.7074    1.8291    1.3446 H       1  LIG1        0.1166
     63 H           3.0147    3.4313    3.4988 H       1  LIG1        0.0263
     64 H           4.2579    2.4900    2.6878 H       1  LIG1        0.0263
     65 H           6.8459   -0.1106   -0.7581 H       1  LIG1        0.0263
     66 H           5.6628   -1.3616   -1.1462 H       1  LIG1        0.0263
     67 H           1.2417    1.9204    2.5047 H       1  LIG1        0.0230
     68 H           2.3477    1.1383    3.6435 H       1  LIG1        0.0230
     69 H           2.5432    0.8696    1.9147 H       1  LIG1        0.0230
     70 H           7.0204   -0.9926    1.5768 H       1  LIG1        0.0230
     71 H           7.4021   -2.2379    0.3754 H       1  LIG1        0.0230
     72 H           5.8277   -2.2484    1.1885 H       1  LIG1        0.0230
     73 H           1.2044   -5.9687    4.3630 H       1  LIG1        0.0660
     74 H           0.1686   -4.5427    4.2223 H       1  LIG1        0.0660
     75 H           1.9608   -4.4030    4.0405 H       1  LIG1        0.0660
@<TRIPOS>BOND
     1     1    16   ar
     2     2    16   ar
     3     3    22    1
     4     3    32    1
     5     4    18    2
     6     5    24    1
     7     5    32    1
     8     6    29    1
     9     6    37    1
    10     7    11    1
    11     7    12    1
    12     7    15    1
    13     8    18   am
    14     8    27    1
    15     8    28    1
    16     9    10    1
    17     9    11    1
    18     9    16    1
    19    10    12    1
    20    10    13    1
    21    11    14    1
    22    13    17   ar
    23    13    19   ar
    24    14    20   ar
    25    14    21   ar
    26    15    18    1
    27    17    22   ar
    28    19    23   ar
    29    20    25   ar
    30    21    26   ar
    31    22    24   ar
    32    23    24   ar
    33    25    29   ar
    34    26    29   ar
    35    27    30    1
    36    28    31    1
    37    30    33    1
    38    31    34    1
    39    33    35    1
    40    34    36    1
    41     7    38    1
    42     9    39    1
    43    10    40    1
    44    11    41    1
    45    12    42    1
    46    12    43    1
    47    15    44    1
    48    15    45    1
    49    17    46    1
    50    19    47    1
    51    20    48    1
    52    21    49    1
    53    23    50    1
    54    25    51    1
    55    26    52    1
    56    27    53    1
    57    27    54    1
    58    28    55    1
    59    28    56    1
    60    30    57    1
    61    30    58    1
    62    31    59    1
    63    31    60    1
    64    32    61    1
    65    32    62    1
    66    33    63    1
    67    33    64    1
    68    34    65    1
    69    34    66    1
    70    35    67    1
    71    35    68    1
    72    35    69    1
    73    36    70    1
    74    36    71    1
    75    36    72    1
    76    37    73    1
    77    37    74    1
    78    37    75    1
@<TRIPOS>MOLECULE
159594
 75 78 0 0 0
SMALL
GASTEIGER

@<TRIPOS>ATOM
      1 O          -3.5962   -1.6742   -2.9725 O.co2   1  LIG1       -0.5493
      2 O          -1.5224   -2.4973   -3.3992 O.co2   1  LIG1       -0.5493
      3 O          -3.4957    2.7589    2.4210 O.3     1  LIG1       -0.4526
      4 O           1.5485   -0.0294   -3.5508 O.2     1  LIG1       -0.2697
      5 O          -5.8250    2.6683    1.7959 O.3     1  LIG1       -0.4526
      6 O           0.8618   -5.4656    2.4284 O.3     1  LIG1       -0.4951
      7 N           0.1757    0.0796   -0.9971 N.4     1  LIG1        0.2481
      8 N           3.6578    0.3327   -2.7241 N.am    1  LIG1       -0.2971
      9 C          -1.8466   -1.0891   -1.5283 C.3     1  LIG1        0.0574
     10 C          -2.0745    0.4090   -1.7858 C.3     1  LIG1        0.0378
     11 C          -0.3453   -1.3214   -1.3531 C.3     1  LIG1        0.0143
     12 C          -0.6797    1.0202   -1.8081 C.3     1  LIG1       -0.0230
     13 C          -3.0582    1.0191   -0.7919 C.ar    1  LIG1       -0.0347
     14 C          -0.0431   -2.3979   -0.3026 C.ar    1  LIG1        0.0011
     15 C           1.6799    0.2900   -1.1635 C.3     1  LIG1        0.0468
     16 C          -2.3680   -1.8305   -2.7538 C.2     1  LIG1        0.0513
     17 C          -2.6889    1.6159    0.4235 C.ar    1  LIG1       -0.0125
     18 C           2.2758    0.1808   -2.5803 C.2     1  LIG1        0.2608
     19 C          -4.4367    0.9590   -1.1285 C.ar    1  LIG1       -0.0544
     20 C          -0.4197   -3.7239   -0.5856 C.ar    1  LIG1       -0.0498
     21 C           0.6016   -2.1658    0.9227 C.ar    1  LIG1       -0.0498
     22 C          -3.6887    2.1407    1.2235 C.ar    1  LIG1        0.1665
     23 C          -5.4248    1.4998   -0.3001 C.ar    1  LIG1       -0.0159
     24 C          -5.0160    2.0897    0.8716 C.ar    1  LIG1        0.1662
     25 C          -0.1590   -4.7764    0.3017 C.ar    1  LIG1       -0.0195
     26 C           0.8845   -3.2243    1.7983 C.ar    1  LIG1       -0.0195
     27 C           4.5703    0.7360   -1.6450 C.3     1  LIG1        0.0148
     28 C           4.2347    0.1076   -4.0614 C.3     1  LIG1        0.0148
     29 C           0.5124   -4.5314    1.4933 C.ar    1  LIG1        0.1201
     30 C           4.6124    2.2475   -1.3881 C.3     1  LIG1       -0.0374
     31 C           5.1627   -1.1094   -4.1448 C.3     1  LIG1       -0.0374
     32 C          -4.8570    3.0852    2.7786 C.3     1  LIG1        0.2332
     33 C           5.2231    3.1043   -2.4989 C.3     1  LIG1       -0.0545
     34 C           4.4779   -2.4199   -3.7569 C.3     1  LIG1       -0.0545
     35 C           6.6755    2.7714   -2.8039 C.3     1  LIG1       -0.0652
     36 C           5.4326   -3.5968   -3.8908 C.3     1  LIG1       -0.0652
     37 C           0.5384   -6.8190    2.1305 C.3     1  LIG1        0.0788
     38 H          -0.0821    0.2195   -0.0195 H       1  LIG1        0.2045
     39 H          -2.4146   -1.4418   -0.6571 H       1  LIG1        0.0427
     40 H          -2.4951    0.6094   -2.7823 H       1  LIG1        0.0409
     41 H           0.1875   -1.5958   -2.2670 H       1  LIG1        0.0911
     42 H          -0.3053    1.0520   -2.8325 H       1  LIG1        0.0821
     43 H          -0.5995    2.0192   -1.3701 H       1  LIG1        0.0821
     44 H           2.1684   -0.4453   -0.5214 H       1  LIG1        0.0913
     45 H           1.8660    1.2917   -0.7689 H       1  LIG1        0.0913
     46 H          -1.6657    1.6869    0.7630 H       1  LIG1        0.0658
     47 H          -4.7472    0.4678   -2.0541 H       1  LIG1        0.0622
     48 H          -0.9303   -3.9670   -1.5211 H       1  LIG1        0.0623
     49 H           0.9129   -1.1787    1.2419 H       1  LIG1        0.0623
     50 H          -6.4725    1.4461   -0.5733 H       1  LIG1        0.0655
     51 H          -0.4924   -5.7692    0.0179 H       1  LIG1        0.0654
     52 H           1.4042   -3.0267    2.7348 H       1  LIG1        0.0654
     53 H           5.5727    0.3481   -1.8422 H       1  LIG1        0.0464
     54 H           4.2410    0.2454   -0.7235 H       1  LIG1        0.0464
     55 H           4.7884    1.0048   -4.3497 H       1  LIG1        0.0464
     56 H           3.4431   -0.0097   -4.8088 H       1  LIG1        0.0464
     57 H           5.1844    2.4183   -0.4674 H       1  LIG1        0.0280
     58 H           3.6004    2.6202   -1.1944 H       1  LIG1        0.0280
     59 H           6.0457   -0.9586   -3.5142 H       1  LIG1        0.0280
     60 H           5.5324   -1.1865   -5.1754 H       1  LIG1        0.0280
     61 H          -4.9340    4.1710    2.9071 H       1  LIG1        0.1166
     62 H          -5.0954    2.6010    3.7332 H       1  LIG1        0.1166
     63 H           5.1713    4.1548   -2.1862 H       1  LIG1        0.0263
     64 H           4.6226    3.0303   -3.4112 H       1  LIG1        0.0263
     65 H           3.6029   -2.5878   -4.3955 H       1  LIG1        0.0263
     66 H           4.1226   -2.3714   -2.7214 H       1  LIG1        0.0263
     67 H           7.2920    2.8418   -1.9019 H       1  LIG1        0.0230
     68 H           7.0741    3.4755   -3.5414 H       1  LIG1        0.0230
     69 H           6.7846    1.7654   -3.2168 H       1  LIG1        0.0230
     70 H           5.7839   -3.7021   -4.9223 H       1  LIG1        0.0230
     71 H           4.9316   -4.5272   -3.6052 H       1  LIG1        0.0230
     72 H           6.3052   -3.4684   -3.2428 H       1  LIG1        0.0230
     73 H           0.9355   -7.4435    2.9366 H       1  LIG1        0.0660
     74 H           1.0112   -7.1463    1.1966 H       1  LIG1        0.0660
     75 H          -0.5457   -6.9646    2.0969 H       1  LIG1        0.0660
@<TRIPOS>BOND
     1     1    16   ar
     2     2    16   ar
     3     3    22    1
     4     3    32    1
     5     4    18    2
     6     5    24    1
     7     5    32    1
     8     6    29    1
     9     6    37    1
    10     7    11    1
    11     7    12    1
    12     7    15    1
    13     8    18   am
    14     8    27    1
    15     8    28    1
    16     9    10    1
    17     9    11    1
    18     9    16    1
    19    10    12    1
    20    10    13    1
    21    11    14    1
    22    13    17   ar
    23    13    19   ar
    24    14    20   ar
    25    14    21   ar
    26    15    18    1
    27    17    22   ar
    28    19    23   ar
    29    20    25   ar
    30    21    26   ar
    31    22    24   ar
    32    23    24   ar
    33    25    29   ar
    34    26    29   ar
    35    27    30    1
    36    28    31    1
    37    30    33    1
    38    31    34    1
    39    33    35    1
    40    34    36    1
    41     7    38    1
    42     9    39    1
    43    10    40    1
    44    11    41    1
    45    12    42    1
    46    12    43    1
    47    15    44    1
    48    15    45    1
    49    17    46    1
    50    19    47    1
    51    20    48    1
    52    21    49    1
    53    23    50    1
    54    25    51    1
    55    26    52    1
    56    27    53    1
    57    27    54    1
    58    28    55    1
    59    28    56    1
    60    30    57    1
    61    30    58    1
    62    31    59    1
    63    31    60    1
    64    32    61    1
    65    32    62    1
    66    33    63    1
    67    33    64    1
    68    34    65    1
    69    34    66    1
    70    35    67    1
    71    35    68    1
    72    35    69    1
    73    36    70    1
    74    36    71    1
    75    36    72    1
    76    37    73    1
    77    37    74    1
    78    37    75    1
@<TRIPOS>MOLECULE
159594
 75 78 0 0 0
SMALL
GASTEIGER

@<TRIPOS>ATOM
      1 O          -2.5828   -3.1477   -2.9643 O.co2   1  LIG1       -0.5493
      2 O          -1.4605   -1.4209   -3.9488 O.co2   1  LIG1       -0.5493
      3 O          -6.2890    2.9450   -0.8207 O.3     1  LIG1       -0.4526
      4 O           1.0036    2.1794    0.0582 O.2     1  LIG1       -0.2697
      5 O          -5.9101    2.8221    1.5578 O.3     1  LIG1       -0.4526
      6 O           0.7694   -5.2583    2.6487 O.3     1  LIG1       -0.4951
      7 N          -0.0765    0.0414   -1.1269 N.4     1  LIG1        0.2481
      8 N           3.0437    2.1971   -1.0185 N.am    1  LIG1       -0.2971
      9 C          -2.0045   -1.2804   -1.6695 C.3     1  LIG1        0.0574
     10 C          -2.3362    0.1883   -1.9364 C.3     1  LIG1        0.0378
     11 C          -0.5061   -1.3941   -1.3740 C.3     1  LIG1        0.0143
     12 C          -0.9753    0.8710   -2.0226 C.3     1  LIG1       -0.0230
     13 C          -3.2563    0.8467   -0.9169 C.ar    1  LIG1       -0.0347
     14 C          -0.1784   -2.3858   -0.2637 C.ar    1  LIG1        0.0011
     15 C           1.3968    0.3118   -1.3620 C.3     1  LIG1        0.0468
     16 C          -2.0463   -2.0166   -3.0001 C.2     1  LIG1        0.0513
     17 C          -4.3547    1.5847   -1.4051 C.ar    1  LIG1       -0.0125
     18 C           1.8045    1.6452   -0.7174 C.2     1  LIG1        0.2608
     19 C          -3.0546    0.7716    0.4798 C.ar    1  LIG1       -0.0544
     20 C          -0.3501   -3.7556   -0.5454 C.ar    1  LIG1       -0.0498
     21 C           0.3184   -2.0417    1.0002 C.ar    1  LIG1       -0.0498
     22 C          -5.1906    2.2091   -0.5049 C.ar    1  LIG1        0.1665
     23 C          -3.9147    1.4304    1.3707 C.ar    1  LIG1       -0.0159
     24 C          -4.9743    2.1379    0.8471 C.ar    1  LIG1        0.1662
     25 C          -0.0509   -4.7462    0.3945 C.ar    1  LIG1       -0.0195
     26 C           0.6286   -3.0386    1.9369 C.ar    1  LIG1       -0.0195
     27 C           3.9722    1.6284   -2.0109 C.3     1  LIG1        0.0148
     28 C           3.3200    3.5617   -0.5402 C.3     1  LIG1        0.0148
     29 C           0.4363   -4.3908    1.6456 C.ar    1  LIG1        0.1201
     30 C           5.4276    1.5629   -1.5410 C.3     1  LIG1       -0.0374
     31 C           3.9921    3.6263    0.8377 C.3     1  LIG1       -0.0374
     32 C          -6.7685    3.2895    0.4949 C.3     1  LIG1        0.2332
     33 C           6.3461    0.8537   -2.5405 C.3     1  LIG1       -0.0545
     34 C           3.0726    3.4361    2.0475 C.3     1  LIG1       -0.0545
     35 C           6.4755    1.5852   -3.8683 C.3     1  LIG1       -0.0652
     36 C           2.0197    4.5262    2.1927 C.3     1  LIG1       -0.0652
     37 C           0.3395   -6.6067    2.4843 C.3     1  LIG1        0.0788
     38 H          -0.2954    0.3296   -0.1672 H       1  LIG1        0.2045
     39 H          -2.6572   -1.7538   -0.9272 H       1  LIG1        0.0427
     40 H          -2.8342    0.3080   -2.9080 H       1  LIG1        0.0409
     41 H           0.1122   -1.7089   -2.2269 H       1  LIG1        0.0911
     42 H          -0.5619    0.8271   -3.0359 H       1  LIG1        0.0821
     43 H          -0.9651    1.9054   -1.6656 H       1  LIG1        0.0821
     44 H           1.5569    0.3163   -2.4429 H       1  LIG1        0.0913
     45 H           1.9657   -0.4913   -0.8851 H       1  LIG1        0.0913
     46 H          -4.5657    1.6605   -2.4682 H       1  LIG1        0.0658
     47 H          -2.2423    0.1877    0.9012 H       1  LIG1        0.0622
     48 H          -0.7319   -4.0786   -1.5166 H       1  LIG1        0.0623
     49 H           0.4851   -1.0119    1.2982 H       1  LIG1        0.0623
     50 H          -3.7627    1.3772    2.4432 H       1  LIG1        0.0655
     51 H          -0.2105   -5.7805    0.1064 H       1  LIG1        0.0654
     52 H           1.0188   -2.7591    2.9137 H       1  LIG1        0.0654
     53 H           3.8794    2.2474   -2.9103 H       1  LIG1        0.0464
     54 H           3.6592    0.6185   -2.2839 H       1  LIG1        0.0464
     55 H           2.3902    4.1398   -0.5490 H       1  LIG1        0.0464
     56 H           3.9729    4.0456   -1.2767 H       1  LIG1        0.0464
     57 H           5.4707    1.0221   -0.5875 H       1  LIG1        0.0280
     58 H           5.8171    2.5692   -1.3500 H       1  LIG1        0.0280
     59 H           4.4727    4.6084    0.9334 H       1  LIG1        0.0280
     60 H           4.7948    2.8834    0.8975 H       1  LIG1        0.0280
     61 H          -7.7655    2.8538    0.6308 H       1  LIG1        0.1166
     62 H          -6.8503    4.3804    0.5621 H       1  LIG1        0.1166
     63 H           5.9857   -0.1659   -2.7206 H       1  LIG1        0.0263
     64 H           7.3431    0.7628   -2.0935 H       1  LIG1        0.0263
     65 H           3.6942    3.4455    2.9515 H       1  LIG1        0.0263
     66 H           2.5942    2.4524    2.0186 H       1  LIG1        0.0263
     67 H           5.5269    1.5993   -4.4131 H       1  LIG1        0.0230
     68 H           7.2131    1.0841   -4.5034 H       1  LIG1        0.0230
     69 H           6.8040    2.6184   -3.7179 H       1  LIG1        0.0230
     70 H           2.4830    5.5176    2.2230 H       1  LIG1        0.0230
     71 H           1.4605    4.3869    3.1235 H       1  LIG1        0.0230
     72 H           1.2982    4.5111    1.3717 H       1  LIG1        0.0230
     73 H           0.5774   -7.1489    3.4044 H       1  LIG1        0.0660
     74 H           0.8757   -7.0944    1.6634 H       1  LIG1        0.0660
     75 H          -0.7446   -6.6627    2.3363 H       1  LIG1        0.0660
@<TRIPOS>BOND
     1     1    16   ar
     2     2    16   ar
     3     3    22    1
     4     3    32    1
     5     4    18    2
     6     5    24    1
     7     5    32    1
     8     6    29    1
     9     6    37    1
    10     7    11    1
    11     7    12    1
    12     7    15    1
    13     8    18   am
    14     8    27    1
    15     8    28    1
    16     9    10    1
    17     9    11    1
    18     9    16    1
    19    10    12    1
    20    10    13    1
    21    11    14    1
    22    13    17   ar
    23    13    19   ar
    24    14    20   ar
    25    14    21   ar
    26    15    18    1
    27    17    22   ar
    28    19    23   ar
    29    20    25   ar
    30    21    26   ar
    31    22    24   ar
    32    23    24   ar
    33    25    29   ar
    34    26    29   ar
    35    27    30    1
    36    28    31    1
    37    30    33    1
    38    31    34    1
    39    33    35    1
    40    34    36    1
    41     7    38    1
    42     9    39    1
    43    10    40    1
    44    11    41    1
    45    12    42    1
    46    12    43    1
    47    15    44    1
    48    15    45    1
    49    17    46    1
    50    19    47    1
    51    20    48    1
    52    21    49    1
    53    23    50    1
    54    25    51    1
    55    26    52    1
    56    27    53    1
    57    27    54    1
    58    28    55    1
    59    28    56    1
    60    30    57    1
    61    30    58    1
    62    31    59    1
    63    31    60    1
    64    32    61    1
    65    32    62    1
    66    33    63    1
    67    33    64    1
    68    34    65    1
    69    34    66    1
    70    35    67    1
    71    35    68    1
    72    35    69    1
    73    36    70    1
    74    36    71    1
    75    36    72    1
    76    37    73    1
    77    37    74    1
    78    37    75    1
@<TRIPOS>MOLECULE
159594
 75 78 0 0 0
SMALL
GASTEIGER

@<TRIPOS>ATOM
      1 O          -2.8726   -2.8117   -2.8452 O.co2   1  LIG1       -0.5493
      2 O          -1.2855   -1.5149   -3.8553 O.co2   1  LIG1       -0.5493
      3 O          -6.2526    0.3626    0.8234 O.3     1  LIG1       -0.4526
      4 O           1.3673    2.7529   -0.9637 O.2     1  LIG1       -0.2697
      5 O          -5.8403    2.5590    1.7281 O.3     1  LIG1       -0.4526
      6 O           1.0177   -5.3538    2.4045 O.3     1  LIG1       -0.4951
      7 N           0.1168    0.1554   -1.0331 N.4     1  LIG1        0.2481
      8 N           3.1466    1.9249    0.2275 N.am    1  LIG1       -0.2971
      9 C          -1.8034   -1.1429   -1.6065 C.3     1  LIG1        0.0574
     10 C          -2.1026    0.3392   -1.9121 C.3     1  LIG1        0.0378
     11 C          -0.3092   -1.2746   -1.3474 C.3     1  LIG1        0.0143
     12 C          -0.6934    0.9310   -2.0585 C.3     1  LIG1       -0.0230
     13 C          -3.0208    0.9788   -0.8633 C.ar    1  LIG1       -0.0347
     14 C           0.0386   -2.2920   -0.2772 C.ar    1  LIG1        0.0011
     15 C           1.6194    0.3749   -1.0860 C.3     1  LIG1        0.0468
     16 C          -2.0131   -1.9043   -2.8983 C.2     1  LIG1        0.0513
     17 C          -4.2064    0.2995   -0.5033 C.ar    1  LIG1       -0.0125
     18 C           2.0459    1.7788   -0.6150 C.2     1  LIG1        0.2608
     19 C          -2.8111    2.2747   -0.3314 C.ar    1  LIG1       -0.0544
     20 C           0.5366   -3.5395   -0.6913 C.ar    1  LIG1       -0.0498
     21 C          -0.1537   -2.0760    1.0947 C.ar    1  LIG1       -0.0498
     22 C          -5.0831    0.8955    0.3807 C.ar    1  LIG1        0.1665
     23 C          -3.7254    2.8602    0.5572 C.ar    1  LIG1       -0.0159
     24 C          -4.8484    2.1431    0.8972 C.ar    1  LIG1        0.1662
     25 C           0.8585   -4.5284    0.2382 C.ar    1  LIG1       -0.0195
     26 C           0.1683   -3.0752    2.0264 C.ar    1  LIG1       -0.0195
     27 C           3.4239    3.2677    0.7665 C.3     1  LIG1        0.0148
     28 C           4.1039    0.8217    0.4234 C.3     1  LIG1        0.0148
     29 C           0.6689   -4.3059    1.5996 C.ar    1  LIG1        0.1201
     30 C           2.2862    3.9264    1.5646 C.3     1  LIG1       -0.0374
     31 C           5.4954    1.1136    1.0003 C.3     1  LIG1       -0.0374
     32 C          -6.7398    1.4316    1.6588 C.3     1  LIG1        0.2332
     33 C           1.6963    3.0785    2.6915 C.3     1  LIG1       -0.0545
     34 C           6.4024    1.9107    0.0594 C.3     1  LIG1       -0.0545
     35 C           2.6993    2.7335    3.7791 C.3     1  LIG1       -0.0652
     36 C           7.7244    2.2513    0.7334 C.3     1  LIG1       -0.0652
     37 C           0.4567   -5.3625    3.7110 C.3     1  LIG1        0.0788
     38 H          -0.2335    0.4199   -0.1088 H       1  LIG1        0.2045
     39 H          -2.4038   -1.5747   -0.8012 H       1  LIG1        0.0427
     40 H          -2.6325    0.4805   -2.8642 H       1  LIG1        0.0409
     41 H           0.2891   -1.5336   -2.2306 H       1  LIG1        0.0911
     42 H          -0.2562    0.7257   -3.0424 H       1  LIG1        0.0821
     43 H          -0.6204    1.9965   -1.8606 H       1  LIG1        0.0821
     44 H           1.9509    0.2201   -2.1178 H       1  LIG1        0.0913
     45 H           2.0491   -0.3924   -0.4410 H       1  LIG1        0.0913
     46 H          -4.4604   -0.6717   -0.9249 H       1  LIG1        0.0658
     47 H          -1.9587    2.8857   -0.6148 H       1  LIG1        0.0622
     48 H           0.6504   -3.7685   -1.7520 H       1  LIG1        0.0623
     49 H          -0.5821   -1.1487    1.4653 H       1  LIG1        0.0623
     50 H          -3.5685    3.8605    0.9464 H       1  LIG1        0.0655
     51 H           1.2284   -5.4915   -0.1070 H       1  LIG1        0.0654
     52 H           0.0086   -2.8695    3.0803 H       1  LIG1        0.0654
     53 H           3.6776    3.9106   -0.0857 H       1  LIG1        0.0464
     54 H           4.2998    3.2489    1.4165 H       1  LIG1        0.0464
     55 H           4.2282    0.3114   -0.5391 H       1  LIG1        0.0464
     56 H           3.6068    0.1144    1.0986 H       1  LIG1        0.0464
     57 H           1.4723    4.2210    0.8943 H       1  LIG1        0.0280
     58 H           2.6668    4.8666    1.9851 H       1  LIG1        0.0280
     59 H           5.9821    0.1484    1.1964 H       1  LIG1        0.0280
     60 H           5.4172    1.6040    1.9762 H       1  LIG1        0.0280
     61 H          -6.8921    1.0440    2.6727 H       1  LIG1        0.1166
     62 H          -7.7038    1.7741    1.2648 H       1  LIG1        0.1166
     63 H           1.2590    2.1585    2.2884 H       1  LIG1        0.0263
     64 H           0.8721    3.6416    3.1462 H       1  LIG1        0.0263
     65 H           5.9230    2.8408   -0.2592 H       1  LIG1        0.0263
     66 H           6.5989    1.3268   -0.8470 H       1  LIG1        0.0263
     67 H           3.4778    2.0630    3.4063 H       1  LIG1        0.0230
     68 H           2.1936    2.2272    4.6075 H       1  LIG1        0.0230
     69 H           3.1773    3.6352    4.1745 H       1  LIG1        0.0230
     70 H           7.5610    2.8599    1.6291 H       1  LIG1        0.0230
     71 H           8.3646    2.8196    0.0515 H       1  LIG1        0.0230
     72 H           8.2612    1.3442    1.0285 H       1  LIG1        0.0230
     73 H           0.6605   -6.3422    4.1544 H       1  LIG1        0.0660
     74 H          -0.6302   -5.2293    3.6832 H       1  LIG1        0.0660
     75 H           0.9318   -4.6048    4.3415 H       1  LIG1        0.0660
@<TRIPOS>BOND
     1     1    16   ar
     2     2    16   ar
     3     3    22    1
     4     3    32    1
     5     4    18    2
     6     5    24    1
     7     5    32    1
     8     6    29    1
     9     6    37    1
    10     7    11    1
    11     7    12    1
    12     7    15    1
    13     8    18   am
    14     8    27    1
    15     8    28    1
    16     9    10    1
    17     9    11    1
    18     9    16    1
    19    10    12    1
    20    10    13    1
    21    11    14    1
    22    13    17   ar
    23    13    19   ar
    24    14    20   ar
    25    14    21   ar
    26    15    18    1
    27    17    22   ar
    28    19    23   ar
    29    20    25   ar
    30    21    26   ar
    31    22    24   ar
    32    23    24   ar
    33    25    29   ar
    34    26    29   ar
    35    27    30    1
    36    28    31    1
    37    30    33    1
    38    31    34    1
    39    33    35    1
    40    34    36    1
    41     7    38    1
    42     9    39    1
    43    10    40    1
    44    11    41    1
    45    12    42    1
    46    12    43    1
    47    15    44    1
    48    15    45    1
    49    17    46    1
    50    19    47    1
    51    20    48    1
    52    21    49    1
    53    23    50    1
    54    25    51    1
    55    26    52    1
    56    27    53    1
    57    27    54    1
    58    28    55    1
    59    28    56    1
    60    30    57    1
    61    30    58    1
    62    31    59    1
    63    31    60    1
    64    32    61    1
    65    32    62    1
    66    33    63    1
    67    33    64    1
    68    34    65    1
    69    34    66    1
    70    35    67    1
    71    35    68    1
    72    35    69    1
    73    36    70    1
    74    36    71    1
    75    36    72    1
    76    37    73    1
    77    37    74    1
    78    37    75    1
@<TRIPOS>MOLECULE
159594
 75 78 0 0 0
SMALL
GASTEIGER

@<TRIPOS>ATOM
      1 O          -3.7321   -1.9375   -2.6540 O.co2   1  LIG1       -0.5493
      2 O          -1.6374   -2.5315   -3.3162 O.co2   1  LIG1       -0.5493
      3 O          -3.5716    2.7999    2.3349 O.3     1  LIG1       -0.4526
      4 O           1.6061   -0.3260   -3.4305 O.2     1  LIG1       -0.2697
      5 O          -5.8868    2.8082    1.6529 O.3     1  LIG1       -0.4526
      6 O           1.0192   -5.5831    2.2909 O.3     1  LIG1       -0.4951
      7 N           0.0901    0.0702   -0.9791 N.4     1  LIG1        0.2481
      8 N           3.3633    0.9940   -2.7907 N.am    1  LIG1       -0.2971
      9 C          -1.9047   -1.1608   -1.4143 C.3     1  LIG1        0.0574
     10 C          -2.1598    0.3097   -1.7886 C.3     1  LIG1        0.0378
     11 C          -0.3931   -1.3537   -1.2979 C.3     1  LIG1        0.0143
     12 C          -0.7757    0.9426   -1.8542 C.3     1  LIG1       -0.0230
     13 C          -3.1404    0.9883   -0.8388 C.ar    1  LIG1       -0.0347
     14 C          -0.0109   -2.4079   -0.2579 C.ar    1  LIG1        0.0011
     15 C           1.5813    0.3394   -1.1207 C.3     1  LIG1        0.0468
     16 C          -2.4758   -1.9697   -2.5690 C.2     1  LIG1        0.0513
     17 C          -2.7730    1.5916    0.3740 C.ar    1  LIG1       -0.0125
     18 C           2.1700    0.3141   -2.5434 C.2     1  LIG1        0.2608
     19 C          -4.5110    0.9831   -1.2082 C.ar    1  LIG1       -0.0544
     20 C           0.5350   -2.1314    1.0067 C.ar    1  LIG1       -0.0498
     21 C          -0.2183   -3.7593   -0.5899 C.ar    1  LIG1       -0.0498
     22 C          -3.7647    2.1749    1.1409 C.ar    1  LIG1        0.1665
     23 C          -5.4908    1.5879   -0.4153 C.ar    1  LIG1       -0.0159
     24 C          -5.0837    2.1787    0.7560 C.ar    1  LIG1        0.1662
     25 C           0.9030   -3.1679    1.8808 C.ar    1  LIG1       -0.0195
     26 C           0.1233   -4.7879    0.2919 C.ar    1  LIG1       -0.0195
     27 C           3.9984    1.9308   -1.8554 C.3     1  LIG1        0.0148
     28 C           3.9737    0.8254   -4.1197 C.3     1  LIG1        0.0148
     29 C           0.7116   -4.4990    1.5182 C.ar    1  LIG1        0.1201
     30 C           3.3581    3.3255   -1.8258 C.3     1  LIG1       -0.0374
     31 C           5.3756    0.2039   -4.1181 C.3     1  LIG1       -0.0374
     32 C          -4.9287    3.1741    2.6645 C.3     1  LIG1        0.2332
     33 C           3.4633    4.1460   -3.1132 C.3     1  LIG1       -0.0545
     34 C           5.4493   -1.2545   -3.6585 C.3     1  LIG1       -0.0545
     35 C           4.8923    4.4325   -3.5481 C.3     1  LIG1       -0.0652
     36 C           5.3002   -1.4506   -2.1580 C.3     1  LIG1       -0.0652
     37 C           2.1039   -5.4113    3.1950 C.3     1  LIG1        0.0788
     38 H          -0.1941    0.2346   -0.0134 H       1  LIG1        0.2045
     39 H          -2.4248   -1.4498   -0.4915 H       1  LIG1        0.0427
     40 H          -2.5821    0.4249   -2.7975 H       1  LIG1        0.0409
     41 H           0.1036   -1.6211   -2.2317 H       1  LIG1        0.0911
     42 H          -0.3905    0.9019   -2.8763 H       1  LIG1        0.0821
     43 H          -0.7119    1.9704   -1.4841 H       1  LIG1        0.0821
     44 H           2.1093   -0.4031   -0.5173 H       1  LIG1        0.0913
     45 H           1.7166    1.3189   -0.6607 H       1  LIG1        0.0913
     46 H          -1.7567    1.6205    0.7390 H       1  LIG1        0.0658
     47 H          -4.8224    0.4788   -2.1264 H       1  LIG1        0.0622
     48 H           0.6941   -1.1181    1.3572 H       1  LIG1        0.0623
     49 H          -0.6552   -4.0334   -1.5525 H       1  LIG1        0.0623
     50 H          -6.5336    1.5750   -0.7112 H       1  LIG1        0.0655
     51 H           1.3166   -2.9082    2.8504 H       1  LIG1        0.0654
     52 H          -0.0618   -5.8211    0.0062 H       1  LIG1        0.0654
     53 H           5.0673    2.0043   -2.0696 H       1  LIG1        0.0464
     54 H           3.9279    1.4966   -0.8519 H       1  LIG1        0.0464
     55 H           4.0198    1.8107   -4.5905 H       1  LIG1        0.0464
     56 H           3.3339    0.2200   -4.7703 H       1  LIG1        0.0464
     57 H           3.8252    3.8950   -1.0124 H       1  LIG1        0.0280
     58 H           2.2957    3.2421   -1.5715 H       1  LIG1        0.0280
     59 H           6.0773    0.8111   -3.5372 H       1  LIG1        0.0280
     60 H           5.7394    0.2381   -5.1536 H       1  LIG1        0.0280
     61 H          -4.9663    4.2600    2.8067 H       1  LIG1        0.1166
     62 H          -5.2082    2.6863    3.6057 H       1  LIG1        0.1166
     63 H           2.9571    5.1053   -2.9487 H       1  LIG1        0.0263
     64 H           2.9173    3.6514   -3.9231 H       1  LIG1        0.0263
     65 H           6.4332   -1.6436   -3.9484 H       1  LIG1        0.0263
     66 H           4.7048   -1.8599   -4.1880 H       1  LIG1        0.0263
     67 H           5.4448    4.9534   -2.7604 H       1  LIG1        0.0230
     68 H           4.8909    5.0691   -4.4392 H       1  LIG1        0.0230
     69 H           5.4351    3.5178   -3.7991 H       1  LIG1        0.0230
     70 H           5.9074   -0.7324   -1.5980 H       1  LIG1        0.0230
     71 H           5.6255   -2.4579   -1.8785 H       1  LIG1        0.0230
     72 H           4.2606   -1.3525   -1.8397 H       1  LIG1        0.0230
     73 H           2.3690   -6.3978    3.5887 H       1  LIG1        0.0660
     74 H           1.8145   -4.7823    4.0423 H       1  LIG1        0.0660
     75 H           2.9861   -5.0063    2.6874 H       1  LIG1        0.0660
@<TRIPOS>BOND
     1     1    16   ar
     2     2    16   ar
     3     3    22    1
     4     3    32    1
     5     4    18    2
     6     5    24    1
     7     5    32    1
     8     6    29    1
     9     6    37    1
    10     7    11    1
    11     7    12    1
    12     7    15    1
    13     8    18   am
    14     8    27    1
    15     8    28    1
    16     9    10    1
    17     9    11    1
    18     9    16    1
    19    10    12    1
    20    10    13    1
    21    11    14    1
    22    13    17   ar
    23    13    19   ar
    24    14    20   ar
    25    14    21   ar
    26    15    18    1
    27    17    22   ar
    28    19    23   ar
    29    20    25   ar
    30    21    26   ar
    31    22    24   ar
    32    23    24   ar
    33    25    29   ar
    34    26    29   ar
    35    27    30    1
    36    28    31    1
    37    30    33    1
    38    31    34    1
    39    33    35    1
    40    34    36    1
    41     7    38    1
    42     9    39    1
    43    10    40    1
    44    11    41    1
    45    12    42    1
    46    12    43    1
    47    15    44    1
    48    15    45    1
    49    17    46    1
    50    19    47    1
    51    20    48    1
    52    21    49    1
    53    23    50    1
    54    25    51    1
    55    26    52    1
    56    27    53    1
    57    27    54    1
    58    28    55    1
    59    28    56    1
    60    30    57    1
    61    30    58    1
    62    31    59    1
    63    31    60    1
    64    32    61    1
    65    32    62    1
    66    33    63    1
    67    33    64    1
    68    34    65    1
    69    34    66    1
    70    35    67    1
    71    35    68    1
    72    35    69    1
    73    36    70    1
    74    36    71    1
    75    36    72    1
    76    37    73    1
    77    37    74    1
    78    37    75    1
@<TRIPOS>MOLECULE
159594
 75 78 0 0 0
SMALL
GASTEIGER

@<TRIPOS>ATOM
      1 O          -1.1570   -1.0374   -3.9911 O.co2   1  LIG1       -0.5493
      2 O          -2.0848   -2.9819   -3.2338 O.co2   1  LIG1       -0.5493
      3 O          -5.2242    0.3729    2.1170 O.3     1  LIG1       -0.4526
      4 O           1.1553    2.2009    0.3373 O.2     1  LIG1       -0.2697
      5 O          -5.7932    2.6904    1.7760 O.3     1  LIG1       -0.4526
      6 O           0.7403   -5.4662    2.4788 O.3     1  LIG1       -0.4951
      7 N           0.0199    0.0824   -0.9434 N.4     1  LIG1        0.2481
      8 N           3.3397    1.8645   -0.3162 N.am    1  LIG1       -0.2971
      9 C          -1.8669   -1.1760   -1.7530 C.3     1  LIG1        0.0574
     10 C          -2.1690    0.3244   -1.8728 C.3     1  LIG1        0.0378
     11 C          -0.4177   -1.3345   -1.2912 C.3     1  LIG1        0.0143
     12 C          -0.7735    0.9636   -1.8776 C.3     1  LIG1       -0.0230
     13 C          -3.0772    0.9589   -0.8188 C.ar    1  LIG1       -0.0347
     14 C          -0.1917   -2.3606   -0.1862 C.ar    1  LIG1        0.0011
     15 C           1.5212    0.2753   -1.0261 C.3     1  LIG1        0.0468
     16 C          -1.7205   -1.7821   -3.1423 C.2     1  LIG1        0.0513
     17 C          -3.6515    0.2570    0.2530 C.ar    1  LIG1       -0.0125
     18 C           1.9897    1.5255   -0.2748 C.2     1  LIG1        0.2608
     19 C          -3.4307    2.3264   -0.9968 C.ar    1  LIG1       -0.0544
     20 C          -0.2253   -3.7200   -0.5437 C.ar    1  LIG1       -0.0498
     21 C           0.1315   -2.0464    1.1432 C.ar    1  LIG1       -0.0498
     22 C          -4.5492    0.9222    1.0701 C.ar    1  LIG1        0.1665
     23 C          -4.3236    2.9785   -0.1407 C.ar    1  LIG1       -0.0159
     24 C          -4.8761    2.2426    0.8786 C.ar    1  LIG1        0.1662
     25 C           0.0845   -4.7206    0.3798 C.ar    1  LIG1       -0.0195
     26 C           0.4495   -3.0552    2.0676 C.ar    1  LIG1       -0.0195
     27 C           3.7063    3.2132    0.1437 C.3     1  LIG1        0.0148
     28 C           4.3999    1.0517   -0.9392 C.3     1  LIG1        0.0148
     29 C           0.4331   -4.3959    1.6876 C.ar    1  LIG1        0.1201
     30 C           3.9732    3.2990    1.6452 C.3     1  LIG1       -0.0374
     31 C           4.7494   -0.2701   -0.2373 C.3     1  LIG1       -0.0374
     32 C          -6.0719    1.4760    2.5023 C.3     1  LIG1        0.2332
     33 C           4.4133    4.7072    2.0477 C.3     1  LIG1       -0.0545
     34 C           5.1671   -0.1671    1.2282 C.3     1  LIG1       -0.0545
     35 C           4.7717    4.7787    3.5235 C.3     1  LIG1       -0.0652
     36 C           6.5300    0.4794    1.4183 C.3     1  LIG1       -0.0652
     37 C           1.0093   -5.2039    3.8490 C.3     1  LIG1        0.0788
     38 H          -0.2945    0.3368    0.0002 H       1  LIG1        0.2045
     39 H          -2.5963   -1.7570   -1.1840 H       1  LIG1        0.0427
     40 H          -2.6712    0.5388   -2.8265 H       1  LIG1        0.0409
     41 H           0.2786   -1.6275   -2.0917 H       1  LIG1        0.0911
     42 H          -0.2928    0.9304   -2.8599 H       1  LIG1        0.0821
     43 H          -0.7326    1.9869   -1.4944 H       1  LIG1        0.0821
     44 H           1.7976    0.3231   -2.0830 H       1  LIG1        0.0913
     45 H           1.9598   -0.5987   -0.5505 H       1  LIG1        0.0913
     46 H          -3.4619   -0.7923    0.4463 H       1  LIG1        0.0658
     47 H          -3.0313    2.8898   -1.8399 H       1  LIG1        0.0622
     48 H          -0.4838   -4.0222   -1.5609 H       1  LIG1        0.0623
     49 H           0.1685   -1.0222    1.5011 H       1  LIG1        0.0623
     50 H          -4.5970    4.0165   -0.2937 H       1  LIG1        0.0655
     51 H           0.0561   -5.7624    0.0671 H       1  LIG1        0.0654
     52 H           0.7158   -2.7584    3.0772 H       1  LIG1        0.0654
     53 H           2.8894    3.8994   -0.1134 H       1  LIG1        0.0464
     54 H           4.5788    3.5570   -0.4239 H       1  LIG1        0.0464
     55 H           5.3084    1.6568   -1.0311 H       1  LIG1        0.0464
     56 H           4.0763    0.8285   -1.9622 H       1  LIG1        0.0464
     57 H           4.7568    2.5931    1.9268 H       1  LIG1        0.0280
     58 H           3.0750    3.0132    2.2050 H       1  LIG1        0.0280
     59 H           5.5571   -0.7518   -0.8035 H       1  LIG1        0.0280
     60 H           3.9089   -0.9640   -0.2934 H       1  LIG1        0.0280
     61 H          -5.9350    1.6680    3.5721 H       1  LIG1        0.1166
     62 H          -7.1179    1.1953    2.3270 H       1  LIG1        0.1166
     63 H           3.6132    5.4245    1.8321 H       1  LIG1        0.0263
     64 H           5.2866    5.0071    1.4563 H       1  LIG1        0.0263
     65 H           5.2124   -1.1803    1.6469 H       1  LIG1        0.0263
     66 H           4.4048    0.3640    1.8065 H       1  LIG1        0.0263
     67 H           3.9124    4.5192    4.1496 H       1  LIG1        0.0230
     68 H           5.0928    5.7913    3.7870 H       1  LIG1        0.0230
     69 H           5.5906    4.0918    3.7613 H       1  LIG1        0.0230
     70 H           7.3121   -0.1171    0.9382 H       1  LIG1        0.0230
     71 H           6.7666    0.5480    2.4851 H       1  LIG1        0.0230
     72 H           6.5668    1.4880    0.9986 H       1  LIG1        0.0230
     73 H           1.1801   -6.1641    4.3453 H       1  LIG1        0.0660
     74 H           0.1536   -4.7246    4.3355 H       1  LIG1        0.0660
     75 H           1.9175   -4.6033    3.9632 H       1  LIG1        0.0660
@<TRIPOS>BOND
     1     1    16   ar
     2     2    16   ar
     3     3    22    1
     4     3    32    1
     5     4    18    2
     6     5    24    1
     7     5    32    1
     8     6    29    1
     9     6    37    1
    10     7    11    1
    11     7    12    1
    12     7    15    1
    13     8    18   am
    14     8    27    1
    15     8    28    1
    16     9    10    1
    17     9    11    1
    18     9    16    1
    19    10    12    1
    20    10    13    1
    21    11    14    1
    22    13    17   ar
    23    13    19   ar
    24    14    20   ar
    25    14    21   ar
    26    15    18    1
    27    17    22   ar
    28    19    23   ar
    29    20    25   ar
    30    21    26   ar
    31    22    24   ar
    32    23    24   ar
    33    25    29   ar
    34    26    29   ar
    35    27    30    1
    36    28    31    1
    37    30    33    1
    38    31    34    1
    39    33    35    1
    40    34    36    1
    41     7    38    1
    42     9    39    1
    43    10    40    1
    44    11    41    1
    45    12    42    1
    46    12    43    1
    47    15    44    1
    48    15    45    1
    49    17    46    1
    50    19    47    1
    51    20    48    1
    52    21    49    1
    53    23    50    1
    54    25    51    1
    55    26    52    1
    56    27    53    1
    57    27    54    1
    58    28    55    1
    59    28    56    1
    60    30    57    1
    61    30    58    1
    62    31    59    1
    63    31    60    1
    64    32    61    1
    65    32    62    1
    66    33    63    1
    67    33    64    1
    68    34    65    1
    69    34    66    1
    70    35    67    1
    71    35    68    1
    72    35    69    1
    73    36    70    1
    74    36    71    1
    75    36    72    1
    76    37    73    1
    77    37    74    1
    78    37    75    1
@<TRIPOS>MOLECULE
159594
 75 78 0 0 0
SMALL
GASTEIGER

@<TRIPOS>ATOM
      1 O          -1.6259   -1.1682   -3.9501 O.co2   1  LIG1       -0.5493
      2 O          -2.4118   -3.0475   -2.9109 O.co2   1  LIG1       -0.5493
      3 O          -3.5336    2.7442    2.4131 O.3     1  LIG1       -0.4526
      4 O           2.6349   -0.8309   -2.6578 O.2     1  LIG1       -0.2697
      5 O          -5.8838    2.5605    1.8990 O.3     1  LIG1       -0.4526
      6 O           1.1204   -5.2419    2.4211 O.3     1  LIG1       -0.4951
      7 N           0.0037    0.1113   -0.9670 N.4     1  LIG1        0.2481
      8 N           2.3086    1.3880   -3.1796 N.am    1  LIG1       -0.2971
      9 C          -1.9229   -1.1533   -1.6283 C.3     1  LIG1        0.0574
     10 C          -2.2280    0.3418   -1.7952 C.3     1  LIG1        0.0378
     11 C          -0.4098   -1.3023   -1.4123 C.3     1  LIG1        0.0143
     12 C          -0.8490    0.9894   -1.8412 C.3     1  LIG1       -0.0230
     13 C          -3.1860    0.8807   -0.7401 C.ar    1  LIG1       -0.0347
     14 C          -0.0083   -2.3458   -0.3857 C.ar    1  LIG1        0.0011
     15 C           1.4907    0.4045   -0.9796 C.3     1  LIG1        0.0468
     16 C          -2.0160   -1.8597   -2.9681 C.2     1  LIG1        0.0513
     17 C          -2.7846    1.5352    0.4349 C.ar    1  LIG1       -0.0125
     18 C           2.1986    0.2786   -2.3345 C.2     1  LIG1        0.2608
     19 C          -4.5753    0.7565   -1.0086 C.ar    1  LIG1       -0.0544
     20 C           0.9078   -3.3441   -0.7575 C.ar    1  LIG1       -0.0498
     21 C          -0.5088   -2.3578    0.9236 C.ar    1  LIG1       -0.0498
     22 C          -3.7624    2.0580    1.2603 C.ar    1  LIG1        0.1665
     23 C          -5.5412    1.3000   -0.1557 C.ar    1  LIG1       -0.0159
     24 C          -5.1005    1.9517    0.9709 C.ar    1  LIG1        0.1662
     25 C           1.3129   -4.3298    0.1481 C.ar    1  LIG1       -0.0195
     26 C          -0.0944   -3.3411    1.8289 C.ar    1  LIG1       -0.0195
     27 C           2.7268    1.0964   -4.5610 C.3     1  LIG1        0.0148
     28 C           1.7798    2.7328   -2.9048 C.3     1  LIG1        0.0148
     29 C           0.8085   -4.3354    1.4456 C.ar    1  LIG1        0.1201
     30 C           1.5955    0.4890   -5.3958 C.3     1  LIG1       -0.0374
     31 C           2.6813    3.9075   -3.3078 C.3     1  LIG1       -0.0374
     32 C          -4.8863    3.0649    2.8090 C.3     1  LIG1        0.2332
     33 C           1.8994    0.4586   -6.8952 C.3     1  LIG1       -0.0545
     34 C           4.1259    3.8323   -2.8105 C.3     1  LIG1       -0.0545
     35 C           3.1958   -0.2542   -7.2474 C.3     1  LIG1       -0.0652
     36 C           4.2492    3.7813   -1.2971 C.3     1  LIG1       -0.0652
     37 C           1.8059   -6.4160    1.9979 C.3     1  LIG1        0.0788
     38 H          -0.3137    0.1845    0.0011 H       1  LIG1        0.2045
     39 H          -2.5493   -1.6470   -0.8807 H       1  LIG1        0.0427
     40 H          -2.7145    0.5726   -2.7525 H       1  LIG1        0.0409
     41 H           0.1570   -1.4814   -2.3340 H       1  LIG1        0.0911
     42 H          -0.4384    0.9481   -2.8536 H       1  LIG1        0.0821
     43 H          -0.8045    2.0133   -1.4603 H       1  LIG1        0.0821
     44 H           1.9550   -0.3088   -0.2884 H       1  LIG1        0.0913
     45 H           1.6280    1.3847   -0.5215 H       1  LIG1        0.0913
     46 H          -1.7509    1.6798    0.7162 H       1  LIG1        0.0658
     47 H          -4.9098    0.2460   -1.9138 H       1  LIG1        0.0622
     48 H           1.3042   -3.3785   -1.7736 H       1  LIG1        0.0623
     49 H          -1.2483   -1.6324    1.2533 H       1  LIG1        0.0623
     50 H          -6.5986    1.2204   -0.3829 H       1  LIG1        0.0655
     51 H           2.0154   -5.0805   -0.1991 H       1  LIG1        0.0654
     52 H          -0.5006   -3.3521    2.8380 H       1  LIG1        0.0654
     53 H           3.5722    0.3993   -4.5219 H       1  LIG1        0.0464
     54 H           3.1017    2.0069   -5.0342 H       1  LIG1        0.0464
     55 H           1.5404    2.8411   -1.8471 H       1  LIG1        0.0464
     56 H           0.8307    2.8219   -3.4455 H       1  LIG1        0.0464
     57 H           0.6718    1.0608   -5.2445 H       1  LIG1        0.0280
     58 H           1.3851   -0.5295   -5.0470 H       1  LIG1        0.0280
     59 H           2.2223    4.8325   -2.9352 H       1  LIG1        0.0280
     60 H           2.6921    4.0083   -4.3993 H       1  LIG1        0.0280
     61 H          -4.9828    4.1554    2.8674 H       1  LIG1        0.1166
     62 H          -5.0711    2.6413    3.8026 H       1  LIG1        0.1166
     63 H           1.9378    1.4840   -7.2815 H       1  LIG1        0.0263
     64 H           1.0691   -0.0411   -7.4081 H       1  LIG1        0.0263
     65 H           4.6603    4.7182   -3.1749 H       1  LIG1        0.0263
     66 H           4.6337    2.9647   -3.2456 H       1  LIG1        0.0263
     67 H           4.0663    0.3007   -6.8836 H       1  LIG1        0.0230
     68 H           3.2934   -0.3414   -8.3343 H       1  LIG1        0.0230
     69 H           3.2225   -1.2612   -6.8201 H       1  LIG1        0.0230
     70 H           3.7412    4.6318   -0.8322 H       1  LIG1        0.0230
     71 H           5.3045    3.8174   -1.0075 H       1  LIG1        0.0230
     72 H           3.8253    2.8585   -0.8915 H       1  LIG1        0.0230
     73 H           1.8754   -7.0907    2.8567 H       1  LIG1        0.0660
     74 H           2.8258   -6.1799    1.6775 H       1  LIG1        0.0660
     75 H           1.2544   -6.9383    1.2085 H       1  LIG1        0.0660
@<TRIPOS>BOND
     1     1    16   ar
     2     2    16   ar
     3     3    22    1
     4     3    32    1
     5     4    18    2
     6     5    24    1
     7     5    32    1
     8     6    29    1
     9     6    37    1
    10     7    11    1
    11     7    12    1
    12     7    15    1
    13     8    18   am
    14     8    27    1
    15     8    28    1
    16     9    10    1
    17     9    11    1
    18     9    16    1
    19    10    12    1
    20    10    13    1
    21    11    14    1
    22    13    17   ar
    23    13    19   ar
    24    14    20   ar
    25    14    21   ar
    26    15    18    1
    27    17    22   ar
    28    19    23   ar
    29    20    25   ar
    30    21    26   ar
    31    22    24   ar
    32    23    24   ar
    33    25    29   ar
    34    26    29   ar
    35    27    30    1
    36    28    31    1
    37    30    33    1
    38    31    34    1
    39    33    35    1
    40    34    36    1
    41     7    38    1
    42     9    39    1
    43    10    40    1
    44    11    41    1
    45    12    42    1
    46    12    43    1
    47    15    44    1
    48    15    45    1
    49    17    46    1
    50    19    47    1
    51    20    48    1
    52    21    49    1
    53    23    50    1
    54    25    51    1
    55    26    52    1
    56    27    53    1
    57    27    54    1
    58    28    55    1
    59    28    56    1
    60    30    57    1
    61    30    58    1
    62    31    59    1
    63    31    60    1
    64    32    61    1
    65    32    62    1
    66    33    63    1
    67    33    64    1
    68    34    65    1
    69    34    66    1
    70    35    67    1
    71    35    68    1
    72    35    69    1
    73    36    70    1
    74    36    71    1
    75    36    72    1
    76    37    73    1
    77    37    74    1
    78    37    75    1
@<TRIPOS>MOLECULE
159594
 75 78 0 0 0
SMALL
GASTEIGER

@<TRIPOS>ATOM
      1 O          -1.4175   -1.1093   -3.9604 O.co2   1  LIG1       -0.5493
      2 O          -2.1624   -3.0079   -2.9299 O.co2   1  LIG1       -0.5493
      3 O          -3.5930    2.6758    2.4086 O.3     1  LIG1       -0.4526
      4 O           1.9302    2.7293   -0.8691 O.2     1  LIG1       -0.2697
      5 O          -5.9156    2.5298    1.7749 O.3     1  LIG1       -0.4526
      6 O           1.0940   -5.2284    2.4615 O.3     1  LIG1       -0.4951
      7 N           0.0981    0.1236   -0.8990 N.4     1  LIG1        0.2481
      8 N           2.1646    1.6380    1.1486 N.am    1  LIG1       -0.2971
      9 C          -1.8303   -1.0739   -1.6571 C.3     1  LIG1        0.0574
     10 C          -2.0939    0.4282   -1.8215 C.3     1  LIG1        0.0378
     11 C          -0.3379   -1.2572   -1.3754 C.3     1  LIG1        0.0143
     12 C          -0.7054    1.0626   -1.7766 C.3     1  LIG1       -0.0230
     13 C          -3.1012    0.9534   -0.8053 C.ar    1  LIG1       -0.0347
     14 C           0.0115   -2.3263   -0.3549 C.ar    1  LIG1        0.0011
     15 C           1.5848    0.3764   -0.9710 C.3     1  LIG1        0.0468
     16 C          -1.8409   -1.7979   -2.9902 C.2     1  LIG1        0.0513
     17 C          -2.7527    1.5592    0.4122 C.ar    1  LIG1       -0.0125
     18 C           1.9505    1.6712   -0.2330 C.2     1  LIG1        0.2608
     19 C          -4.4766    0.8487   -1.1446 C.ar    1  LIG1       -0.0544
     20 C           0.8544   -3.3816   -0.7433 C.ar    1  LIG1       -0.0498
     21 C          -0.4595   -2.3019    0.9645 C.ar    1  LIG1       -0.0498
     22 C          -3.7670    2.0496    1.2131 C.ar    1  LIG1        0.1665
     23 C          -5.4798    1.3608   -0.3158 C.ar    1  LIG1       -0.0159
     24 C          -5.0904    1.9618    0.8570 C.ar    1  LIG1        0.1662
     25 C           1.2416   -4.3714    0.1647 C.ar    1  LIG1       -0.0195
     26 C          -0.0637   -3.2908    1.8717 C.ar    1  LIG1       -0.0195
     27 C           2.3736    0.4084    1.9312 C.3     1  LIG1        0.0148
     28 C           2.4667    2.9266    1.8021 C.3     1  LIG1        0.0148
     29 C           0.7853   -4.3286    1.4790 C.ar    1  LIG1        0.1201
     30 C           3.8132    0.1683    2.4037 C.3     1  LIG1       -0.0374
     31 C           1.8608    3.1253    3.1961 C.3     1  LIG1       -0.0374
     32 C          -4.9593    3.0051    2.7428 C.3     1  LIG1        0.2332
     33 C           4.8070   -0.2331    1.3110 C.3     1  LIG1       -0.0545
     34 C           0.3309    3.1047    3.2402 C.3     1  LIG1       -0.0545
     35 C           5.3766    0.9368    0.5251 C.3     1  LIG1       -0.0652
     36 C          -0.3075    4.2497    2.4701 C.3     1  LIG1       -0.0652
     37 C           1.7552   -6.4199    2.0475 C.3     1  LIG1        0.0788
     38 H          -0.2097    0.2288    0.0700 H       1  LIG1        0.2045
     39 H          -2.4974   -1.5641   -0.9399 H       1  LIG1        0.0427
     40 H          -2.5241    0.6779   -2.8009 H       1  LIG1        0.0409
     41 H           0.2804   -1.4282   -2.2687 H       1  LIG1        0.0911
     42 H          -0.2347    1.0665   -2.7664 H       1  LIG1        0.0821
     43 H          -0.6704    2.0675   -1.3472 H       1  LIG1        0.0821
     44 H           1.8644    0.4704   -2.0268 H       1  LIG1        0.0913
     45 H           2.1180   -0.4893   -0.5788 H       1  LIG1        0.0913
     46 H          -1.7317    1.6886    0.7440 H       1  LIG1        0.0658
     47 H          -4.7696    0.3753   -2.0833 H       1  LIG1        0.0622
     48 H           1.1985   -3.4621   -1.7751 H       1  LIG1        0.0623
     49 H          -1.1568   -1.5387    1.3013 H       1  LIG1        0.0623
     50 H          -6.5258    1.2941   -0.5938 H       1  LIG1        0.0655
     51 H           1.8873   -5.1663   -0.1946 H       1  LIG1        0.0654
     52 H          -0.4428   -3.2715    2.8915 H       1  LIG1        0.0654
     53 H           2.0237   -0.4693    1.3889 H       1  LIG1        0.0464
     54 H           1.7197    0.4701    2.8076 H       1  LIG1        0.0464
     55 H           2.1573    3.7598    1.1628 H       1  LIG1        0.0464
     56 H           3.5581    2.9989    1.8712 H       1  LIG1        0.0464
     57 H           3.7726   -0.6613    3.1220 H       1  LIG1        0.0280
     58 H           4.1949    1.0295    2.9630 H       1  LIG1        0.0280
     59 H           2.2128    4.0880    3.5884 H       1  LIG1        0.0280
     60 H           2.2444    2.3659    3.8865 H       1  LIG1        0.0280
     61 H          -5.0471    4.0954    2.8186 H       1  LIG1        0.1166
     62 H          -5.1976    2.5644    3.7173 H       1  LIG1        0.1166
     63 H           4.3555   -0.9607    0.6278 H       1  LIG1        0.0263
     64 H           5.6497   -0.7419    1.7962 H       1  LIG1        0.0263
     65 H           0.0180    3.1757    4.2890 H       1  LIG1        0.0263
     66 H          -0.0541    2.1512    2.8629 H       1  LIG1        0.0263
     67 H           4.6267    1.4019   -0.1162 H       1  LIG1        0.0230
     68 H           6.1889    0.5911   -0.1227 H       1  LIG1        0.0230
     69 H           5.7841    1.7019    1.1935 H       1  LIG1        0.0230
     70 H           0.1062    5.2138    2.7821 H       1  LIG1        0.0230
     71 H          -1.3853    4.2728    2.6558 H       1  LIG1        0.0230
     72 H          -0.1577    4.1383    1.3923 H       1  LIG1        0.0230
     73 H           1.8402   -7.0762    2.9189 H       1  LIG1        0.0660
     74 H           2.7689   -6.2028    1.6948 H       1  LIG1        0.0660
     75 H           1.1773   -6.9527    1.2844 H       1  LIG1        0.0660
@<TRIPOS>BOND
     1     1    16   ar
     2     2    16   ar
     3     3    22    1
     4     3    32    1
     5     4    18    2
     6     5    24    1
     7     5    32    1
     8     6    29    1
     9     6    37    1
    10     7    11    1
    11     7    12    1
    12     7    15    1
    13     8    18   am
    14     8    27    1
    15     8    28    1
    16     9    10    1
    17     9    11    1
    18     9    16    1
    19    10    12    1
    20    10    13    1
    21    11    14    1
    22    13    17   ar
    23    13    19   ar
    24    14    20   ar
    25    14    21   ar
    26    15    18    1
    27    17    22   ar
    28    19    23   ar
    29    20    25   ar
    30    21    26   ar
    31    22    24   ar
    32    23    24   ar
    33    25    29   ar
    34    26    29   ar
    35    27    30    1
    36    28    31    1
    37    30    33    1
    38    31    34    1
    39    33    35    1
    40    34    36    1
    41     7    38    1
    42     9    39    1
    43    10    40    1
    44    11    41    1
    45    12    42    1
    46    12    43    1
    47    15    44    1
    48    15    45    1
    49    17    46    1
    50    19    47    1
    51    20    48    1
    52    21    49    1
    53    23    50    1
    54    25    51    1
    55    26    52    1
    56    27    53    1
    57    27    54    1
    58    28    55    1
    59    28    56    1
    60    30    57    1
    61    30    58    1
    62    31    59    1
    63    31    60    1
    64    32    61    1
    65    32    62    1
    66    33    63    1
    67    33    64    1
    68    34    65    1
    69    34    66    1
    70    35    67    1
    71    35    68    1
    72    35    69    1
    73    36    70    1
    74    36    71    1
    75    36    72    1
    76    37    73    1
    77    37    74    1
    78    37    75    1
@<TRIPOS>MOLECULE
159594
 75 78 0 0 0
SMALL
GASTEIGER

@<TRIPOS>ATOM
      1 O          -1.5532   -1.3402   -3.8205 O.co2   1  LIG1       -0.5493
      2 O          -2.3976   -3.1846   -2.7717 O.co2   1  LIG1       -0.5493
      3 O          -6.3408    0.2515    1.1254 O.3     1  LIG1       -0.4526
      4 O           1.4842    1.9178    0.5291 O.2     1  LIG1       -0.2697
      5 O          -6.0525    2.5518    1.7888 O.3     1  LIG1       -0.4526
      6 O           1.0482   -5.4527    2.4790 O.3     1  LIG1       -0.4951
      7 N           0.0089    0.0039   -0.9521 N.4     1  LIG1        0.2481
      8 N           2.5251    2.5798   -1.4139 N.am    1  LIG1       -0.2971
      9 C          -1.9387   -1.2663   -1.5073 C.3     1  LIG1        0.0574
     10 C          -2.2565    0.2291   -1.7147 C.3     1  LIG1        0.0378
     11 C          -0.4330   -1.4110   -1.2736 C.3     1  LIG1        0.0143
     12 C          -0.8613    0.8371   -1.8584 C.3     1  LIG1       -0.0230
     13 C          -3.1676    0.8662   -0.6621 C.ar    1  LIG1       -0.0347
     14 C          -0.0490   -2.4592   -0.2449 C.ar    1  LIG1        0.0011
     15 C           1.4857    0.2619   -1.1624 C.3     1  LIG1        0.0468
     16 C          -2.0040   -1.9964   -2.8392 C.2     1  LIG1        0.0513
     17 C          -4.2957    0.1577   -0.2023 C.ar    1  LIG1       -0.0125
     18 C           1.8635    1.6490   -0.6187 C.2     1  LIG1        0.2608
     19 C          -3.0375    2.2255   -0.2724 C.ar    1  LIG1       -0.0544
     20 C           0.2453   -3.7531   -0.7133 C.ar    1  LIG1       -0.0498
     21 C           0.0065   -2.2312    1.1346 C.ar    1  LIG1       -0.0498
     22 C          -5.1987    0.7956    0.6267 C.ar    1  LIG1        0.1665
     23 C          -3.9655    2.8462    0.5744 C.ar    1  LIG1       -0.0159
     24 C          -5.0374    2.1039    1.0049 C.ar    1  LIG1        0.1662
     25 C           0.6183   -4.7821    0.1566 C.ar    1  LIG1       -0.0195
     26 C           0.3857   -3.2643    2.0040 C.ar    1  LIG1       -0.0195
     27 C           2.8792    3.8715   -0.7957 C.3     1  LIG1        0.0148
     28 C           3.0710    2.3195   -2.7588 C.3     1  LIG1        0.0148
     29 C           0.6948   -4.5387    1.5238 C.ar    1  LIG1        0.1201
     30 C           1.8484    4.9935   -0.9857 C.3     1  LIG1       -0.0374
     31 C           2.5061    3.2127   -3.8686 C.3     1  LIG1       -0.0374
     32 C          -6.8939    1.3802    1.8324 C.3     1  LIG1        0.2332
     33 C           0.5336    4.7720   -0.2397 C.3     1  LIG1       -0.0545
     34 C           0.9954    3.0687   -4.0525 C.3     1  LIG1       -0.0545
     35 C          -0.4463    5.9088   -0.4876 C.3     1  LIG1       -0.0652
     36 C           0.4569    4.0445   -5.0872 C.3     1  LIG1       -0.0652
     37 C           1.2681   -6.7877    2.0345 C.3     1  LIG1        0.0788
     38 H          -0.2246    0.2383    0.0212 H       1  LIG1        0.2045
     39 H          -2.5391   -1.7697   -0.7451 H       1  LIG1        0.0427
     40 H          -2.8000    0.4035   -2.6536 H       1  LIG1        0.0409
     41 H           0.1482   -1.6542   -2.1759 H       1  LIG1        0.0911
     42 H          -0.4748    0.7189   -2.8756 H       1  LIG1        0.0821
     43 H          -0.7486    1.8785   -1.5670 H       1  LIG1        0.0821
     44 H           1.6829    0.1085   -2.2197 H       1  LIG1        0.0913
     45 H           2.0369   -0.4827   -0.5790 H       1  LIG1        0.0913
     46 H          -4.5079   -0.8598   -0.5205 H       1  LIG1        0.0658
     47 H          -2.2453    2.8623   -0.6527 H       1  LIG1        0.0622
     48 H           0.1577   -3.9862   -1.7774 H       1  LIG1        0.0623
     49 H          -0.2523   -1.2706    1.5691 H       1  LIG1        0.0623
     50 H          -3.8650    3.8902    0.8508 H       1  LIG1        0.0655
     51 H           0.8242   -5.7565   -0.2712 H       1  LIG1        0.0654
     52 H           0.4256   -3.0770    3.0753 H       1  LIG1        0.0654
     53 H           3.8388    4.1935   -1.2180 H       1  LIG1        0.0464
     54 H           3.0560    3.7226    0.2762 H       1  LIG1        0.0464
     55 H           2.9439    1.2768   -3.0461 H       1  LIG1        0.0464
     56 H           4.1556    2.4699   -2.6948 H       1  LIG1        0.0464
     57 H           1.6372    5.1496   -2.0465 H       1  LIG1        0.0280
     58 H           2.2987    5.9267   -0.6237 H       1  LIG1        0.0280
     59 H           3.0028    2.9471   -4.8104 H       1  LIG1        0.0280
     60 H           2.7674    4.2584   -3.6770 H       1  LIG1        0.0280
     61 H          -7.0468    1.0988    2.8802 H       1  LIG1        0.1166
     62 H          -7.8653    1.6301    1.3893 H       1  LIG1        0.1166
     63 H           0.7255    4.6876    0.8359 H       1  LIG1        0.0263
     64 H           0.0639    3.8414   -0.5664 H       1  LIG1        0.0263
     65 H           0.4749    3.2495   -3.1076 H       1  LIG1        0.0263
     66 H           0.7601    2.0463   -4.3670 H       1  LIG1        0.0263
     67 H          -0.0279    6.8681   -0.1676 H       1  LIG1        0.0230
     68 H          -1.3731    5.7375    0.0690 H       1  LIG1        0.0230
     69 H          -0.6990    5.9803   -1.5506 H       1  LIG1        0.0230
     70 H           0.6495    5.0794   -4.7864 H       1  LIG1        0.0230
     71 H          -0.6255    3.9211   -5.1955 H       1  LIG1        0.0230
     72 H           0.9187    3.8770   -6.0649 H       1  LIG1        0.0230
     73 H           1.4965   -7.4006    2.9117 H       1  LIG1        0.0660
     74 H           2.1287   -6.8411    1.3592 H       1  LIG1        0.0660
     75 H           0.3704   -7.2029    1.5638 H       1  LIG1        0.0660
@<TRIPOS>BOND
     1     1    16   ar
     2     2    16   ar
     3     3    22    1
     4     3    32    1
     5     4    18    2
     6     5    24    1
     7     5    32    1
     8     6    29    1
     9     6    37    1
    10     7    11    1
    11     7    12    1
    12     7    15    1
    13     8    18   am
    14     8    27    1
    15     8    28    1
    16     9    10    1
    17     9    11    1
    18     9    16    1
    19    10    12    1
    20    10    13    1
    21    11    14    1
    22    13    17   ar
    23    13    19   ar
    24    14    20   ar
    25    14    21   ar
    26    15    18    1
    27    17    22   ar
    28    19    23   ar
    29    20    25   ar
    30    21    26   ar
    31    22    24   ar
    32    23    24   ar
    33    25    29   ar
    34    26    29   ar
    35    27    30    1
    36    28    31    1
    37    30    33    1
    38    31    34    1
    39    33    35    1
    40    34    36    1
    41     7    38    1
    42     9    39    1
    43    10    40    1
    44    11    41    1
    45    12    42    1
    46    12    43    1
    47    15    44    1
    48    15    45    1
    49    17    46    1
    50    19    47    1
    51    20    48    1
    52    21    49    1
    53    23    50    1
    54    25    51    1
    55    26    52    1
    56    27    53    1
    57    27    54    1
    58    28    55    1
    59    28    56    1
    60    30    57    1
    61    30    58    1
    62    31    59    1
    63    31    60    1
    64    32    61    1
    65    32    62    1
    66    33    63    1
    67    33    64    1
    68    34    65    1
    69    34    66    1
    70    35    67    1
    71    35    68    1
    72    35    69    1
    73    36    70    1
    74    36    71    1
    75    36    72    1
    76    37    73    1
    77    37    74    1
    78    37    75    1
@<TRIPOS>MOLECULE
159594
 75 78 0 0 0
SMALL
GASTEIGER

@<TRIPOS>ATOM
      1 O          -2.6045   -3.0463   -2.8159 O.co2   1  LIG1       -0.5493
      2 O          -1.5691   -1.3086   -3.8791 O.co2   1  LIG1       -0.5493
      3 O          -6.3857    0.3534    0.9934 O.3     1  LIG1       -0.4526
      4 O           1.3130    2.0803    0.3681 O.2     1  LIG1       -0.2697
      5 O          -6.0041    2.5885    1.8140 O.3     1  LIG1       -0.4526
      6 O           1.2051   -5.3720    2.2839 O.3     1  LIG1       -0.4951
      7 N          -0.0199    0.1164   -1.0672 N.4     1  LIG1        0.2481
      8 N           2.7481    2.5401   -1.3724 N.am    1  LIG1       -0.2971
      9 C          -1.9692   -1.1656   -1.5734 C.3     1  LIG1        0.0574
     10 C          -2.2856    0.3270   -1.8088 C.3     1  LIG1        0.0378
     11 C          -0.4648   -1.3063   -1.3512 C.3     1  LIG1        0.0143
     12 C          -0.8925    0.9326   -1.9901 C.3     1  LIG1       -0.0230
     13 C          -3.1775    0.9570   -0.7367 C.ar    1  LIG1       -0.0347
     14 C          -0.0683   -2.3258   -0.2979 C.ar    1  LIG1        0.0011
     15 C           1.4550    0.3654   -1.2745 C.3     1  LIG1        0.0468
     16 C          -2.0829   -1.9089   -2.8932 C.2     1  LIG1        0.0513
     17 C          -4.3427    0.2690   -0.3360 C.ar    1  LIG1       -0.0125
     18 C           1.8463    1.7323   -0.6949 C.2     1  LIG1        0.2608
     19 C          -2.9845    2.2741   -0.2486 C.ar    1  LIG1       -0.0544
     20 C           0.2259   -3.6302   -0.7338 C.ar    1  LIG1       -0.0498
     21 C           0.0139   -2.0567    1.0751 C.ar    1  LIG1       -0.0498
     22 C          -5.2225    0.8844    0.5318 C.ar    1  LIG1        0.1665
     23 C          -3.8975    2.8761    0.6286 C.ar    1  LIG1       -0.0159
     24 C          -5.0063    2.1545    1.0000 C.ar    1  LIG1        0.1662
     25 C           0.6420   -4.6139    0.1645 C.ar    1  LIG1       -0.0195
     26 C           0.4372   -3.0496    1.9753 C.ar    1  LIG1       -0.0195
     27 C           3.0953    3.8333   -0.7779 C.3     1  LIG1        0.0148
     28 C           3.1923    2.3186   -2.7547 C.3     1  LIG1        0.0148
     29 C           0.7691   -4.3267    1.5196 C.ar    1  LIG1        0.1201
     30 C           4.0543    3.7383    0.4140 C.3     1  LIG1       -0.0374
     31 C           2.2255    2.9612   -3.7514 C.3     1  LIG1       -0.0374
     32 C          -6.8862    1.4463    1.7896 C.3     1  LIG1        0.2332
     33 C           5.4492    3.2034    0.0764 C.3     1  LIG1       -0.0545
     34 C           2.6043    2.6433   -5.1953 C.3     1  LIG1       -0.0545
     35 C           5.5363    1.6841    0.0619 C.3     1  LIG1       -0.0652
     36 C           1.7238    3.4008   -6.1771 C.3     1  LIG1       -0.0652
     37 C           1.5194   -5.0965    3.6418 C.3     1  LIG1        0.0788
     38 H          -0.2556    0.3777   -0.1009 H       1  LIG1        0.2045
     39 H          -2.5615   -1.6473   -0.7900 H       1  LIG1        0.0427
     40 H          -2.8469    0.4886   -2.7397 H       1  LIG1        0.0409
     41 H           0.1072   -1.5726   -2.2517 H       1  LIG1        0.0911
     42 H          -0.5142    0.7883   -3.0085 H       1  LIG1        0.0821
     43 H          -0.7744    1.9849   -1.7333 H       1  LIG1        0.0821
     44 H           1.6469    0.2568   -2.3406 H       1  LIG1        0.0913
     45 H           2.0056   -0.3993   -0.7175 H       1  LIG1        0.0913
     46 H          -4.5886   -0.7175   -0.7226 H       1  LIG1        0.0658
     47 H          -2.1483    2.8916   -0.5612 H       1  LIG1        0.0622
     48 H           0.1165   -3.9015   -1.7850 H       1  LIG1        0.0623
     49 H          -0.2549   -1.0859    1.4818 H       1  LIG1        0.0623
     50 H          -3.7526    3.8912    0.9816 H       1  LIG1        0.0655
     51 H           0.8615   -5.6149   -0.2007 H       1  LIG1        0.0654
     52 H           0.4837   -2.7983    3.0303 H       1  LIG1        0.0654
     53 H           2.1658    4.3135   -0.4479 H       1  LIG1        0.0464
     54 H           3.5271    4.4856   -1.5462 H       1  LIG1        0.0464
     55 H           3.2893    1.2472   -2.9456 H       1  LIG1        0.0464
     56 H           4.1981    2.7403   -2.8672 H       1  LIG1        0.0464
     57 H           3.6115    3.1475    1.2237 H       1  LIG1        0.0280
     58 H           4.1757    4.7563    0.8069 H       1  LIG1        0.0280
     59 H           2.2179    4.0484   -3.6019 H       1  LIG1        0.0280
     60 H           1.2023    2.6171   -3.5589 H       1  LIG1        0.0280
     61 H          -7.0310    1.0950    2.8175 H       1  LIG1        0.1166
     62 H          -7.8555    1.7601    1.3847 H       1  LIG1        0.1166
     63 H           6.1455    3.5657    0.8430 H       1  LIG1        0.0263
     64 H           5.7979    3.6087   -0.8802 H       1  LIG1        0.0263
     65 H           2.5023    1.5665   -5.3740 H       1  LIG1        0.0263
     66 H           3.6525    2.9065   -5.3765 H       1  LIG1        0.0263
     67 H           5.1495    1.2586    0.9932 H       1  LIG1        0.0230
     68 H           6.5802    1.3709   -0.0428 H       1  LIG1        0.0230
     69 H           4.9815    1.2484   -0.7713 H       1  LIG1        0.0230
     70 H           0.6660    3.1644   -6.0226 H       1  LIG1        0.0230
     71 H           1.9861    3.1352   -7.2059 H       1  LIG1        0.0230
     72 H           1.8534    4.4821   -6.0632 H       1  LIG1        0.0230
     73 H           1.9308   -6.0111    4.0806 H       1  LIG1        0.0660
     74 H           0.6209   -4.8299    4.2070 H       1  LIG1        0.0660
     75 H           2.2840   -4.3170    3.7210 H       1  LIG1        0.0660
@<TRIPOS>BOND
     1     1    16   ar
     2     2    16   ar
     3     3    22    1
     4     3    32    1
     5     4    18    2
     6     5    24    1
     7     5    32    1
     8     6    29    1
     9     6    37    1
    10     7    11    1
    11     7    12    1
    12     7    15    1
    13     8    18   am
    14     8    27    1
    15     8    28    1
    16     9    10    1
    17     9    11    1
    18     9    16    1
    19    10    12    1
    20    10    13    1
    21    11    14    1
    22    13    17   ar
    23    13    19   ar
    24    14    20   ar
    25    14    21   ar
    26    15    18    1
    27    17    22   ar
    28    19    23   ar
    29    20    25   ar
    30    21    26   ar
    31    22    24   ar
    32    23    24   ar
    33    25    29   ar
    34    26    29   ar
    35    27    30    1
    36    28    31    1
    37    30    33    1
    38    31    34    1
    39    33    35    1
    40    34    36    1
    41     7    38    1
    42     9    39    1
    43    10    40    1
    44    11    41    1
    45    12    42    1
    46    12    43    1
    47    15    44    1
    48    15    45    1
    49    17    46    1
    50    19    47    1
    51    20    48    1
    52    21    49    1
    53    23    50    1
    54    25    51    1
    55    26    52    1
    56    27    53    1
    57    27    54    1
    58    28    55    1
    59    28    56    1
    60    30    57    1
    61    30    58    1
    62    31    59    1
    63    31    60    1
    64    32    61    1
    65    32    62    1
    66    33    63    1
    67    33    64    1
    68    34    65    1
    69    34    66    1
    70    35    67    1
    71    35    68    1
    72    35    69    1
    73    36    70    1
    74    36    71    1
    75    36    72    1
    76    37    73    1
    77    37    74    1
    78    37    75    1
@<TRIPOS>MOLECULE
159594
 75 78 0 0 0
SMALL
GASTEIGER

@<TRIPOS>ATOM
      1 O          -1.8904   -1.3508   -4.0460 O.co2   1  LIG1       -0.5493
      2 O          -2.3043   -3.2210   -2.8002 O.co2   1  LIG1       -0.5493
      3 O          -5.6338    3.6816   -0.6986 O.3     1  LIG1       -0.4526
      4 O           1.5272   -0.1222   -3.5062 O.2     1  LIG1       -0.2697
      5 O          -5.7355    2.9955    1.6109 O.3     1  LIG1       -0.4526
      6 O           1.2341   -5.2178    2.4986 O.3     1  LIG1       -0.4951
      7 N           0.0046    0.0055   -1.0575 N.4     1  LIG1        0.2481
      8 N           3.5720    0.2884   -2.5827 N.am    1  LIG1       -0.2971
      9 C          -1.9767   -1.1887   -1.7087 C.3     1  LIG1        0.0574
     10 C          -2.2224    0.3087   -1.9091 C.3     1  LIG1        0.0378
     11 C          -0.4749   -1.4158   -1.4453 C.3     1  LIG1        0.0143
     12 C          -0.8304    0.9218   -1.9305 C.3     1  LIG1       -0.0230
     13 C          -3.1144    0.9912   -0.8745 C.ar    1  LIG1       -0.0347
     14 C          -0.0945   -2.4334   -0.3638 C.ar    1  LIG1        0.0011
     15 C           1.5018    0.2978   -1.1303 C.3     1  LIG1        0.0468
     16 C          -2.0869   -1.9971   -2.9866 C.2     1  LIG1        0.0513
     17 C          -3.9297    2.0538   -1.3190 C.ar    1  LIG1       -0.0125
     18 C           2.1911    0.1237   -2.4983 C.2     1  LIG1        0.2608
     19 C          -3.1706    0.6142    0.4865 C.ar    1  LIG1       -0.0544
     20 C           1.2310   -2.9013   -0.2970 C.ar    1  LIG1       -0.0498
     21 C          -1.0026   -2.9684    0.5623 C.ar    1  LIG1       -0.0498
     22 C          -4.7738    2.6669   -0.4180 C.ar    1  LIG1        0.1665
     23 C          -4.0363    1.2608    1.3803 C.ar    1  LIG1       -0.0159
     24 C          -4.8294    2.2790    0.8950 C.ar    1  LIG1        0.1662
     25 C           1.6354   -3.8142    0.6849 C.ar    1  LIG1       -0.0195
     26 C          -0.6055   -3.9081    1.5262 C.ar    1  LIG1       -0.0195
     27 C           4.1738    0.2052   -3.9247 C.3     1  LIG1        0.0148
     28 C           4.4660    0.6320   -1.4716 C.3     1  LIG1        0.0148
     29 C           0.7188   -4.3260    1.5998 C.ar    1  LIG1        0.1201
     30 C           4.1345    1.5551   -4.6474 C.3     1  LIG1       -0.0374
     31 C           5.3463   -0.5529   -1.0585 C.3     1  LIG1       -0.0374
     32 C          -6.2890    3.8396    0.5762 C.3     1  LIG1        0.2332
     33 C           4.6210    1.4794   -6.0961 C.3     1  LIG1       -0.0545
     34 C           6.3633   -0.1957    0.0249 C.3     1  LIG1       -0.0545
     35 C           6.0860    1.0916   -6.2256 C.3     1  LIG1       -0.0652
     36 C           5.7314    0.0175    1.3907 C.3     1  LIG1       -0.0652
     37 C           0.2986   -5.9147    3.3147 C.3     1  LIG1        0.0788
     38 H          -0.2969    0.1389   -0.0893 H       1  LIG1        0.2045
     39 H          -2.6786   -1.6159   -0.9935 H       1  LIG1        0.0427
     40 H          -2.7052    0.4996   -2.8755 H       1  LIG1        0.0409
     41 H           0.0838   -1.6819   -2.3504 H       1  LIG1        0.0911
     42 H          -0.4256    0.9222   -2.9426 H       1  LIG1        0.0821
     43 H          -0.7681    1.9296   -1.5076 H       1  LIG1        0.0821
     44 H           1.9837   -0.3284   -0.3777 H       1  LIG1        0.0913
     45 H           1.6052    1.3441   -0.8260 H       1  LIG1        0.0913
     46 H          -3.9316    2.3759   -2.3570 H       1  LIG1        0.0658
     47 H          -2.5717   -0.2078    0.8678 H       1  LIG1        0.0622
     48 H           1.9688   -2.5907   -1.0347 H       1  LIG1        0.0623
     49 H          -2.0612   -2.7216    0.5395 H       1  LIG1        0.0623
     50 H          -4.1028    0.9573    2.4194 H       1  LIG1        0.0655
     51 H           2.6674   -4.1562    0.7133 H       1  LIG1        0.0654
     52 H          -1.3673   -4.3063    2.1879 H       1  LIG1        0.0654
     53 H           3.6327   -0.5442   -4.5146 H       1  LIG1        0.0464
     54 H           5.2026   -0.1526   -3.8311 H       1  LIG1        0.0464
     55 H           3.8792    0.9749   -0.6159 H       1  LIG1        0.0464
     56 H           5.0855    1.4767   -1.7898 H       1  LIG1        0.0464
     57 H           4.7339    2.2892   -4.0954 H       1  LIG1        0.0280
     58 H           3.1069    1.9390   -4.6499 H       1  LIG1        0.0280
     59 H           5.9059   -0.9178   -1.9281 H       1  LIG1        0.0280
     60 H           4.7173   -1.3899   -0.7301 H       1  LIG1        0.0280
     61 H          -7.3526    3.6000    0.4572 H       1  LIG1        0.1166
     62 H          -6.1975    4.8847    0.8904 H       1  LIG1        0.1166
     63 H           4.4777    2.4615   -6.5622 H       1  LIG1        0.0263
     64 H           4.0051    0.7689   -6.6596 H       1  LIG1        0.0263
     65 H           6.9262    0.6990   -0.2656 H       1  LIG1        0.0263
     66 H           7.0907   -1.0136    0.1047 H       1  LIG1        0.0263
     67 H           6.7234    1.7602   -5.6385 H       1  LIG1        0.0230
     68 H           6.4003    1.1560   -7.2723 H       1  LIG1        0.0230
     69 H           6.2598    0.0646   -5.8916 H       1  LIG1        0.0230
     70 H           5.0559    0.8778    1.3910 H       1  LIG1        0.0230
     71 H           6.5086    0.2024    2.1386 H       1  LIG1        0.0230
     72 H           5.1667   -0.8666    1.7012 H       1  LIG1        0.0230
     73 H           0.8578   -6.6185    3.9380 H       1  LIG1        0.0660
     74 H          -0.4049   -6.4928    2.7060 H       1  LIG1        0.0660
     75 H          -0.2295   -5.2272    3.9841 H       1  LIG1        0.0660
@<TRIPOS>BOND
     1     1    16   ar
     2     2    16   ar
     3     3    22    1
     4     3    32    1
     5     4    18    2
     6     5    24    1
     7     5    32    1
     8     6    29    1
     9     6    37    1
    10     7    11    1
    11     7    12    1
    12     7    15    1
    13     8    18   am
    14     8    27    1
    15     8    28    1
    16     9    10    1
    17     9    11    1
    18     9    16    1
    19    10    12    1
    20    10    13    1
    21    11    14    1
    22    13    17   ar
    23    13    19   ar
    24    14    20   ar
    25    14    21   ar
    26    15    18    1
    27    17    22   ar
    28    19    23   ar
    29    20    25   ar
    30    21    26   ar
    31    22    24   ar
    32    23    24   ar
    33    25    29   ar
    34    26    29   ar
    35    27    30    1
    36    28    31    1
    37    30    33    1
    38    31    34    1
    39    33    35    1
    40    34    36    1
    41     7    38    1
    42     9    39    1
    43    10    40    1
    44    11    41    1
    45    12    42    1
    46    12    43    1
    47    15    44    1
    48    15    45    1
    49    17    46    1
    50    19    47    1
    51    20    48    1
    52    21    49    1
    53    23    50    1
    54    25    51    1
    55    26    52    1
    56    27    53    1
    57    27    54    1
    58    28    55    1
    59    28    56    1
    60    30    57    1
    61    30    58    1
    62    31    59    1
    63    31    60    1
    64    32    61    1
    65    32    62    1
    66    33    63    1
    67    33    64    1
    68    34    65    1
    69    34    66    1
    70    35    67    1
    71    35    68    1
    72    35    69    1
    73    36    70    1
    74    36    71    1
    75    36    72    1
    76    37    73    1
    77    37    74    1
    78    37    75    1
@<TRIPOS>MOLECULE
159594
 75 78 0 0 0
SMALL
GASTEIGER

@<TRIPOS>ATOM
      1 O          -1.8949   -1.6526   -3.7483 O.co2   1  LIG1       -0.5493
      2 O          -2.8261   -3.1967   -2.3489 O.co2   1  LIG1       -0.5493
      3 O          -6.2095    3.0023   -0.9041 O.3     1  LIG1       -0.4526
      4 O           1.5953   -0.3057   -3.4342 O.2     1  LIG1       -0.2697
      5 O          -5.9205    2.9377    1.4886 O.3     1  LIG1       -0.4526
      6 O           0.9530   -5.5200    2.4270 O.3     1  LIG1       -0.4951
      7 N           0.0505   -0.0182   -0.9919 N.4     1  LIG1        0.2481
      8 N           3.5583    0.4819   -2.5540 N.am    1  LIG1       -0.2971
      9 C          -1.9561   -1.2246   -1.4429 C.3     1  LIG1        0.0574
     10 C          -2.1970    0.2475   -1.8009 C.3     1  LIG1        0.0378
     11 C          -0.4445   -1.4308   -1.3258 C.3     1  LIG1        0.0143
     12 C          -0.8009    0.8658   -1.8767 C.3     1  LIG1       -0.0230
     13 C          -3.1297    0.9739   -0.8383 C.ar    1  LIG1       -0.0347
     14 C          -0.0580   -2.4913   -0.2991 C.ar    1  LIG1        0.0011
     15 C           1.5484    0.2155   -1.0801 C.3     1  LIG1        0.0468
     16 C          -2.2747   -2.1052   -2.6364 C.2     1  LIG1        0.0513
     17 C          -4.2193    1.6819   -1.3859 C.ar    1  LIG1       -0.0125
     18 C           2.2221    0.0872   -2.4534 C.2     1  LIG1        0.2608
     19 C          -2.9742    0.9441    0.5670 C.ar    1  LIG1       -0.0544
     20 C          -0.0967   -3.8378   -0.7053 C.ar    1  LIG1       -0.0498
     21 C           0.3116   -2.2251    1.0272 C.ar    1  LIG1       -0.0498
     22 C          -5.1010    2.3091   -0.5323 C.ar    1  LIG1        0.1665
     23 C          -3.8797    1.6045    1.4091 C.ar    1  LIG1       -0.0159
     24 C          -4.9354    2.2723    0.8287 C.ar    1  LIG1        0.1662
     25 C           0.2249   -4.8807    0.1696 C.ar    1  LIG1       -0.0195
     26 C           0.6554   -3.2703    1.8952 C.ar    1  LIG1       -0.0195
     27 C           4.4531    0.6678   -1.4066 C.3     1  LIG1        0.0148
     28 C           4.1874    0.4138   -3.8764 C.3     1  LIG1        0.0148
     29 C           0.6067   -4.6006    1.4762 C.ar    1  LIG1        0.1201
     30 C           5.0851   -0.6510   -0.9572 C.3     1  LIG1       -0.0374
     31 C           3.6635    1.4476   -4.8832 C.3     1  LIG1       -0.0374
     32 C          -6.7647    3.3323    0.3851 C.3     1  LIG1        0.2332
     33 C           6.0318   -0.4361    0.2228 C.3     1  LIG1       -0.0545
     34 C           3.9421    2.9098   -4.5227 C.3     1  LIG1       -0.0545
     35 C           6.6169   -1.7496    0.7163 C.3     1  LIG1       -0.0652
     36 C           3.0015    3.4829   -3.4727 C.3     1  LIG1       -0.0652
     37 C           0.7192   -6.8863    2.1002 C.3     1  LIG1        0.0788
     38 H          -0.2452    0.1710   -0.0360 H       1  LIG1        0.2045
     39 H          -2.5127   -1.5558   -0.5588 H       1  LIG1        0.0427
     40 H          -2.6530    0.3560   -2.7928 H       1  LIG1        0.0409
     41 H           0.0491   -1.6961   -2.2667 H       1  LIG1        0.0911
     42 H          -0.4107    0.8231   -2.8958 H       1  LIG1        0.0821
     43 H          -0.7338    1.8892   -1.4940 H       1  LIG1        0.0821
     44 H           2.0191   -0.4801   -0.3815 H       1  LIG1        0.0913
     45 H           1.6901    1.2381   -0.7155 H       1  LIG1        0.0913
     46 H          -4.3995    1.7145   -2.4575 H       1  LIG1        0.0658
     47 H          -2.1788    0.3721    1.0333 H       1  LIG1        0.0622
     48 H          -0.4138   -4.0991   -1.7180 H       1  LIG1        0.0623
     49 H           0.3410   -1.2200    1.4313 H       1  LIG1        0.0623
     50 H          -3.7767    1.5682    2.4881 H       1  LIG1        0.0655
     51 H           0.1529   -5.8955   -0.2089 H       1  LIG1        0.0654
     52 H           0.9472   -3.0498    2.9198 H       1  LIG1        0.0654
     53 H           3.8939    1.1063   -0.5753 H       1  LIG1        0.0464
     54 H           5.2231    1.3970   -1.6852 H       1  LIG1        0.0464
     55 H           4.0158   -0.5938   -4.2752 H       1  LIG1        0.0464
     56 H           5.2721    0.5319   -3.7704 H       1  LIG1        0.0464
     57 H           5.6345   -1.1050   -1.7910 H       1  LIG1        0.0280
     58 H           4.2989   -1.3627   -0.6778 H       1  LIG1        0.0280
     59 H           2.5918    1.3132   -5.0655 H       1  LIG1        0.0280
     60 H           4.1603    1.2423   -5.8404 H       1  LIG1        0.0280
     61 H          -7.7357    2.8328    0.4885 H       1  LIG1        0.1166
     62 H          -6.9202    4.4159    0.4321 H       1  LIG1        0.1166
     63 H           5.4975    0.0500    1.0473 H       1  LIG1        0.0263
     64 H           6.8480    0.2329   -0.0743 H       1  LIG1        0.0263
     65 H           3.8223    3.5076   -5.4350 H       1  LIG1        0.0263
     66 H           4.9819    3.0336   -4.2002 H       1  LIG1        0.0263
     67 H           5.8272   -2.4240    1.0628 H       1  LIG1        0.0230
     68 H           7.3000   -1.5697    1.5523 H       1  LIG1        0.0230
     69 H           7.1764   -2.2543   -0.0777 H       1  LIG1        0.0230
     70 H           1.9557    3.2711   -3.7171 H       1  LIG1        0.0230
     71 H           3.1209    4.5700   -3.4180 H       1  LIG1        0.0230
     72 H           3.2125    3.0865   -2.4773 H       1  LIG1        0.0230
     73 H           0.9785   -7.4886    2.9763 H       1  LIG1        0.0660
     74 H           1.3609   -7.2095    1.2740 H       1  LIG1        0.0660
     75 H          -0.3377   -7.0646    1.8742 H       1  LIG1        0.0660
@<TRIPOS>BOND
     1     1    16   ar
     2     2    16   ar
     3     3    22    1
     4     3    32    1
     5     4    18    2
     6     5    24    1
     7     5    32    1
     8     6    29    1
     9     6    37    1
    10     7    11    1
    11     7    12    1
    12     7    15    1
    13     8    18   am
    14     8    27    1
    15     8    28    1
    16     9    10    1
    17     9    11    1
    18     9    16    1
    19    10    12    1
    20    10    13    1
    21    11    14    1
    22    13    17   ar
    23    13    19   ar
    24    14    20   ar
    25    14    21   ar
    26    15    18    1
    27    17    22   ar
    28    19    23   ar
    29    20    25   ar
    30    21    26   ar
    31    22    24   ar
    32    23    24   ar
    33    25    29   ar
    34    26    29   ar
    35    27    30    1
    36    28    31    1
    37    30    33    1
    38    31    34    1
    39    33    35    1
    40    34    36    1
    41     7    38    1
    42     9    39    1
    43    10    40    1
    44    11    41    1
    45    12    42    1
    46    12    43    1
    47    15    44    1
    48    15    45    1
    49    17    46    1
    50    19    47    1
    51    20    48    1
    52    21    49    1
    53    23    50    1
    54    25    51    1
    55    26    52    1
    56    27    53    1
    57    27    54    1
    58    28    55    1
    59    28    56    1
    60    30    57    1
    61    30    58    1
    62    31    59    1
    63    31    60    1
    64    32    61    1
    65    32    62    1
    66    33    63    1
    67    33    64    1
    68    34    65    1
    69    34    66    1
    70    35    67    1
    71    35    68    1
    72    35    69    1
    73    36    70    1
    74    36    71    1
    75    36    72    1
    76    37    73    1
    77    37    74    1
    78    37    75    1
@<TRIPOS>MOLECULE
159594
 75 78 0 0 0
SMALL
GASTEIGER

@<TRIPOS>ATOM
      1 O          -1.8494   -1.5650   -3.8257 O.co2   1  LIG1       -0.5493
      2 O          -2.7429   -3.2061   -2.5135 O.co2   1  LIG1       -0.5493
      3 O          -5.5157    3.7050   -0.7504 O.3     1  LIG1       -0.4526
      4 O           1.5907   -0.5123   -3.5098 O.2     1  LIG1       -0.2697
      5 O          -5.6424    3.1136    1.5830 O.3     1  LIG1       -0.4526
      6 O           0.7706   -5.4658    2.5776 O.3     1  LIG1       -0.4951
      7 N           0.0947   -0.0626   -1.0637 N.4     1  LIG1        0.2481
      8 N           3.5525    0.3963   -2.7720 N.am    1  LIG1       -0.2971
      9 C          -1.9342   -1.2591   -1.5007 C.3     1  LIG1        0.0574
     10 C          -2.1668    0.2261   -1.8087 C.3     1  LIG1        0.0378
     11 C          -0.4249   -1.4783   -1.3494 C.3     1  LIG1        0.0143
     12 C          -0.7602    0.8051   -1.9633 C.3     1  LIG1       -0.0230
     13 C          -3.0112    0.9945   -0.7965 C.ar    1  LIG1       -0.0347
     14 C          -0.0765   -2.5080   -0.2782 C.ar    1  LIG1        0.0011
     15 C           1.6000    0.1479   -1.1933 C.3     1  LIG1        0.0468
     16 C          -2.2191   -2.0867   -2.7417 C.2     1  LIG1        0.0513
     17 C          -3.8095    2.0503   -1.2875 C.ar    1  LIG1       -0.0125
     18 C           2.2379   -0.0308   -2.5801 C.2     1  LIG1        0.2608
     19 C          -3.0767    0.6777    0.5793 C.ar    1  LIG1       -0.0544
     20 C          -0.2037   -3.8677   -0.6184 C.ar    1  LIG1       -0.0498
     21 C           0.3466   -2.2029    1.0233 C.ar    1  LIG1       -0.0498
     22 C          -4.6561    2.7053   -0.4191 C.ar    1  LIG1        0.1665
     23 C          -3.9414    1.3695    1.4406 C.ar    1  LIG1       -0.0159
     24 C          -4.7251    2.3701    0.9088 C.ar    1  LIG1        0.1662
     25 C           0.0650   -4.8858    0.3013 C.ar    1  LIG1       -0.0195
     26 C           0.6375   -3.2257    1.9366 C.ar    1  LIG1       -0.0195
     27 C           4.0518    0.3911   -4.1571 C.3     1  LIG1        0.0148
     28 C           4.4531    0.8895   -1.7180 C.3     1  LIG1        0.0148
     29 C           0.4806   -4.5678    1.5882 C.ar    1  LIG1        0.1201
     30 C           3.4206    1.4679   -5.0491 C.3     1  LIG1       -0.0374
     31 C           5.7522    0.0808   -1.6042 C.3     1  LIG1       -0.0374
     32 C          -6.1978    3.8990    0.5058 C.3     1  LIG1        0.2332
     33 C           3.6856    2.8893   -4.5543 C.3     1  LIG1       -0.0545
     34 C           6.5805    0.4236   -0.3634 C.3     1  LIG1       -0.0545
     35 C           3.1191    3.9230   -5.5146 C.3     1  LIG1       -0.0652
     36 C           7.0059    1.8826   -0.2988 C.3     1  LIG1       -0.0652
     37 C           0.2668   -6.7849    2.3873 C.3     1  LIG1        0.0788
     38 H          -0.1887    0.1641   -0.1101 H       1  LIG1        0.2045
     39 H          -2.5265   -1.6387   -0.6619 H       1  LIG1        0.0427
     40 H          -2.6956    0.3512   -2.7625 H       1  LIG1        0.0409
     41 H           0.0765   -1.7961   -2.2688 H       1  LIG1        0.0911
     42 H          -0.4011    0.7088   -2.9902 H       1  LIG1        0.0821
     43 H          -0.6549    1.8411   -1.6256 H       1  LIG1        0.0821
     44 H           2.0796   -0.5381   -0.4905 H       1  LIG1        0.0913
     45 H           1.7616    1.1783   -0.8606 H       1  LIG1        0.0913
     46 H          -3.8106    2.3229   -2.3397 H       1  LIG1        0.0658
     47 H          -2.4999   -0.1434    0.9973 H       1  LIG1        0.0622
     48 H          -0.5458   -4.1576   -1.6150 H       1  LIG1        0.0623
     49 H           0.4605   -1.1838    1.3739 H       1  LIG1        0.0623
     50 H          -4.0235    1.1032    2.4890 H       1  LIG1        0.0655
     51 H          -0.0687   -5.9115   -0.0280 H       1  LIG1        0.0654
     52 H           0.9704   -2.9768    2.9418 H       1  LIG1        0.0654
     53 H           3.8384   -0.5952   -4.5878 H       1  LIG1        0.0464
     54 H           5.1382    0.5089   -4.1679 H       1  LIG1        0.0464
     55 H           3.9440    0.8675   -0.7519 H       1  LIG1        0.0464
     56 H           4.6729    1.9373   -1.9454 H       1  LIG1        0.0464
     57 H           2.3393    1.3106   -5.1320 H       1  LIG1        0.0280
     58 H           3.8301    1.3543   -6.0607 H       1  LIG1        0.0280
     59 H           6.3794    0.2404   -2.4885 H       1  LIG1        0.0280
     60 H           5.5151   -0.9900   -1.5822 H       1  LIG1        0.0280
     61 H          -7.2531    3.6278    0.3788 H       1  LIG1        0.1166
     62 H          -6.1384    4.9590    0.7767 H       1  LIG1        0.1166
     63 H           4.7636    3.0518   -4.4416 H       1  LIG1        0.0263
     64 H           3.2258    3.0378   -3.5711 H       1  LIG1        0.0263
     65 H           7.4806   -0.2032   -0.3644 H       1  LIG1        0.0263
     66 H           6.0175    0.1682    0.5414 H       1  LIG1        0.0263
     67 H           3.5829    3.8366   -6.5023 H       1  LIG1        0.0230
     68 H           3.3068    4.9330   -5.1374 H       1  LIG1        0.0230
     69 H           2.0376    3.7986   -5.6301 H       1  LIG1        0.0230
     70 H           7.5244    2.1846   -1.2143 H       1  LIG1        0.0230
     71 H           7.6873    2.0386    0.5438 H       1  LIG1        0.0230
     72 H           6.1453    2.5426   -0.1541 H       1  LIG1        0.0230
     73 H           0.4450   -7.3466    3.3092 H       1  LIG1        0.0660
     74 H           0.7982   -7.2966    1.5784 H       1  LIG1        0.0660
     75 H          -0.8139   -6.7762    2.2064 H       1  LIG1        0.0660
@<TRIPOS>BOND
     1     1    16   ar
     2     2    16   ar
     3     3    22    1
     4     3    32    1
     5     4    18    2
     6     5    24    1
     7     5    32    1
     8     6    29    1
     9     6    37    1
    10     7    11    1
    11     7    12    1
    12     7    15    1
    13     8    18   am
    14     8    27    1
    15     8    28    1
    16     9    10    1
    17     9    11    1
    18     9    16    1
    19    10    12    1
    20    10    13    1
    21    11    14    1
    22    13    17   ar
    23    13    19   ar
    24    14    20   ar
    25    14    21   ar
    26    15    18    1
    27    17    22   ar
    28    19    23   ar
    29    20    25   ar
    30    21    26   ar
    31    22    24   ar
    32    23    24   ar
    33    25    29   ar
    34    26    29   ar
    35    27    30    1
    36    28    31    1
    37    30    33    1
    38    31    34    1
    39    33    35    1
    40    34    36    1
    41     7    38    1
    42     9    39    1
    43    10    40    1
    44    11    41    1
    45    12    42    1
    46    12    43    1
    47    15    44    1
    48    15    45    1
    49    17    46    1
    50    19    47    1
    51    20    48    1
    52    21    49    1
    53    23    50    1
    54    25    51    1
    55    26    52    1
    56    27    53    1
    57    27    54    1
    58    28    55    1
    59    28    56    1
    60    30    57    1
    61    30    58    1
    62    31    59    1
    63    31    60    1
    64    32    61    1
    65    32    62    1
    66    33    63    1
    67    33    64    1
    68    34    65    1
    69    34    66    1
    70    35    67    1
    71    35    68    1
    72    35    69    1
    73    36    70    1
    74    36    71    1
    75    36    72    1
    76    37    73    1
    77    37    74    1
    78    37    75    1
@<TRIPOS>MOLECULE
159594
 75 78 0 0 0
SMALL
GASTEIGER

@<TRIPOS>ATOM
      1 O          -1.7918   -1.4398   -3.8936 O.co2   1  LIG1       -0.5493
      2 O          -2.6115   -3.1795   -2.6643 O.co2   1  LIG1       -0.5493
      3 O          -5.5307    3.7249   -0.6179 O.3     1  LIG1       -0.4526
      4 O           1.4845   -0.0167   -3.6118 O.2     1  LIG1       -0.2697
      5 O          -5.6841    3.0273    1.6845 O.3     1  LIG1       -0.4526
      6 O           1.1007   -5.5384    2.2413 O.3     1  LIG1       -0.4951
      7 N           0.0459    0.0379   -1.0902 N.4     1  LIG1        0.2481
      8 N           3.5828    0.1784   -2.7135 N.am    1  LIG1       -0.2971
      9 C          -1.9329   -1.2327   -1.5591 C.3     1  LIG1        0.0574
     10 C          -2.2296    0.2508   -1.8163 C.3     1  LIG1        0.0378
     11 C          -0.4181   -1.3929   -1.3980 C.3     1  LIG1        0.0143
     12 C          -0.8491    0.8907   -1.9673 C.3     1  LIG1       -0.0230
     13 C          -3.0796    0.9709   -0.7756 C.ar    1  LIG1       -0.0347
     14 C          -0.0249   -2.4235   -0.3395 C.ar    1  LIG1        0.0011
     15 C           1.5448    0.2876   -1.2232 C.3     1  LIG1        0.0468
     16 C          -2.1515   -2.0238   -2.8381 C.2     1  LIG1        0.0513
     17 C          -3.8564    2.0621   -1.2222 C.ar    1  LIG1       -0.0125
     18 C           2.1853    0.1278   -2.6123 C.2     1  LIG1        0.2608
     19 C          -3.1620    0.5879    0.5815 C.ar    1  LIG1       -0.0544
     20 C          -0.0883   -3.7818   -0.6973 C.ar    1  LIG1       -0.0498
     21 C           0.3985   -2.1185    0.9650 C.ar    1  LIG1       -0.0498
     22 C          -4.6960    2.6918   -0.3295 C.ar    1  LIG1        0.1665
     23 C          -4.0200    1.2549    1.4686 C.ar    1  LIG1       -0.0159
     24 C          -4.7797    2.2956    0.9804 C.ar    1  LIG1        0.1662
     25 C           0.2809   -4.7894    0.1962 C.ar    1  LIG1       -0.0195
     26 C           0.7933   -3.1325    1.8540 C.ar    1  LIG1       -0.0195
     27 C           4.1179    0.1469   -4.0869 C.3     1  LIG1        0.0148
     28 C           4.4584    0.6742   -1.6375 C.3     1  LIG1        0.0148
     29 C           0.7510   -4.4698    1.4651 C.ar    1  LIG1        0.1201
     30 C           4.1735    1.5417   -4.7151 C.3     1  LIG1       -0.0374
     31 C           5.8860    0.1163   -1.6729 C.3     1  LIG1       -0.0374
     32 C          -6.2148    3.8755    0.6429 C.3     1  LIG1        0.2332
     33 C           4.6656    1.4816   -6.1601 C.3     1  LIG1       -0.0545
     34 C           6.7125    0.4690   -0.4347 C.3     1  LIG1       -0.0545
     35 C           4.6813    2.8610   -6.7992 C.3     1  LIG1       -0.0652
     36 C           6.9725    1.9604   -0.2906 C.3     1  LIG1       -0.0652
     37 C           2.0436   -5.2813    3.2737 C.3     1  LIG1        0.0788
     38 H          -0.2411    0.2403   -0.1323 H       1  LIG1        0.2045
     39 H          -2.5221   -1.6736   -0.7490 H       1  LIG1        0.0427
     40 H          -2.7787    0.3799   -2.7585 H       1  LIG1        0.0409
     41 H           0.1107   -1.6699   -2.3182 H       1  LIG1        0.0911
     42 H          -0.5079    0.8355   -3.0006 H       1  LIG1        0.0821
     43 H          -0.7803    1.9221   -1.6072 H       1  LIG1        0.0821
     44 H           2.0272   -0.3983   -0.5231 H       1  LIG1        0.0913
     45 H           1.7006    1.3168   -0.8832 H       1  LIG1        0.0913
     46 H          -3.8425    2.3847   -2.2601 H       1  LIG1        0.0658
     47 H          -2.6021   -0.2618    0.9640 H       1  LIG1        0.0622
     48 H          -0.4460   -4.0809   -1.6852 H       1  LIG1        0.0623
     49 H           0.4389   -1.1001    1.3344 H       1  LIG1        0.0623
     50 H          -4.1135    0.9415    2.5028 H       1  LIG1        0.0655
     51 H           0.2031   -5.8301   -0.1110 H       1  LIG1        0.0654
     52 H           1.1112   -2.8531    2.8539 H       1  LIG1        0.0654
     53 H           3.4849   -0.5037   -4.7027 H       1  LIG1        0.0464
     54 H           5.1038   -0.3265   -4.0853 H       1  LIG1        0.0464
     55 H           4.0114    0.4346   -0.6695 H       1  LIG1        0.0464
     56 H           4.4697    1.7668   -1.7196 H       1  LIG1        0.0464
     57 H           4.8367    2.1883   -4.1280 H       1  LIG1        0.0280
     58 H           3.1786    2.0026   -4.6843 H       1  LIG1        0.0280
     59 H           6.4156    0.4852   -2.5593 H       1  LIG1        0.0280
     60 H           5.8428   -0.9764   -1.7608 H       1  LIG1        0.0280
     61 H          -7.2754    3.6360    0.4980 H       1  LIG1        0.1166
     62 H          -6.1314    4.9198    0.9638 H       1  LIG1        0.1166
     63 H           4.0172    0.8218   -6.7483 H       1  LIG1        0.0263
     64 H           5.6757    1.0571   -6.1911 H       1  LIG1        0.0263
     65 H           7.6777   -0.0471   -0.5048 H       1  LIG1        0.0263
     66 H           6.2167    0.0932    0.4674 H       1  LIG1        0.0263
     67 H           3.6763    3.2947   -6.8193 H       1  LIG1        0.0230
     68 H           5.0437    2.7972   -7.8299 H       1  LIG1        0.0230
     69 H           5.3383    3.5417   -6.2487 H       1  LIG1        0.0230
     70 H           7.4361    2.3682   -1.1945 H       1  LIG1        0.0230
     71 H           7.6505    2.1441    0.5491 H       1  LIG1        0.0230
     72 H           6.0469    2.5106   -0.0978 H       1  LIG1        0.0230
     73 H           2.3790   -6.2463    3.6664 H       1  LIG1        0.0660
     74 H           1.5825   -4.7279    4.0972 H       1  LIG1        0.0660
     75 H           2.9237   -4.7544    2.8887 H       1  LIG1        0.0660
@<TRIPOS>BOND
     1     1    16   ar
     2     2    16   ar
     3     3    22    1
     4     3    32    1
     5     4    18    2
     6     5    24    1
     7     5    32    1
     8     6    29    1
     9     6    37    1
    10     7    11    1
    11     7    12    1
    12     7    15    1
    13     8    18   am
    14     8    27    1
    15     8    28    1
    16     9    10    1
    17     9    11    1
    18     9    16    1
    19    10    12    1
    20    10    13    1
    21    11    14    1
    22    13    17   ar
    23    13    19   ar
    24    14    20   ar
    25    14    21   ar
    26    15    18    1
    27    17    22   ar
    28    19    23   ar
    29    20    25   ar
    30    21    26   ar
    31    22    24   ar
    32    23    24   ar
    33    25    29   ar
    34    26    29   ar
    35    27    30    1
    36    28    31    1
    37    30    33    1
    38    31    34    1
    39    33    35    1
    40    34    36    1
    41     7    38    1
    42     9    39    1
    43    10    40    1
    44    11    41    1
    45    12    42    1
    46    12    43    1
    47    15    44    1
    48    15    45    1
    49    17    46    1
    50    19    47    1
    51    20    48    1
    52    21    49    1
    53    23    50    1
    54    25    51    1
    55    26    52    1
    56    27    53    1
    57    27    54    1
    58    28    55    1
    59    28    56    1
    60    30    57    1
    61    30    58    1
    62    31    59    1
    63    31    60    1
    64    32    61    1
    65    32    62    1
    66    33    63    1
    67    33    64    1
    68    34    65    1
    69    34    66    1
    70    35    67    1
    71    35    68    1
    72    35    69    1
    73    36    70    1
    74    36    71    1
    75    36    72    1
    76    37    73    1
    77    37    74    1
    78    37    75    1
@<TRIPOS>MOLECULE
159594
 75 78 0 0 0
SMALL
GASTEIGER

@<TRIPOS>ATOM
      1 O          -2.5970   -2.8184   -3.0338 O.co2   1  LIG1       -0.5493
      2 O          -1.2551   -1.2051   -3.9405 O.co2   1  LIG1       -0.5493
      3 O          -3.5631    2.9479    2.1942 O.3     1  LIG1       -0.4526
      4 O           1.0978    2.4617    0.1757 O.2     1  LIG1       -0.2697
      5 O          -5.8905    2.6078    1.6585 O.3     1  LIG1       -0.4526
      6 O           0.9494   -5.2891    2.5473 O.3     1  LIG1       -0.4951
      7 N           0.0625    0.0866   -0.8437 N.4     1  LIG1        0.2481
      8 N           3.3011    1.7868    0.2895 N.am    1  LIG1       -0.2971
      9 C          -1.8579   -1.0592   -1.6852 C.3     1  LIG1        0.0574
     10 C          -2.0529    0.4506   -1.8957 C.3     1  LIG1        0.0378
     11 C          -0.3885   -1.2978   -1.3236 C.3     1  LIG1        0.0143
     12 C          -0.6361    1.0127   -1.8202 C.3     1  LIG1       -0.0230
     13 C          -3.0620    1.0261   -0.9054 C.ar    1  LIG1       -0.0347
     14 C          -0.0659   -2.3818   -0.3039 C.ar    1  LIG1        0.0011
     15 C           1.5584    0.2947   -0.7549 C.3     1  LIG1        0.0468
     16 C          -1.9216   -1.7624   -3.0289 C.2     1  LIG1        0.0513
     17 C          -2.7163    1.7502    0.2478 C.ar    1  LIG1       -0.0125
     18 C           1.9579    1.6070   -0.0520 C.2     1  LIG1        0.2608
     19 C          -4.4380    0.8259   -1.1955 C.ar    1  LIG1       -0.0544
     20 C          -0.9201   -2.7418    0.7436 C.ar    1  LIG1       -0.0498
     21 C           1.1712   -3.0529   -0.3992 C.ar    1  LIG1       -0.0498
     22 C          -3.7341    2.2341    1.0481 C.ar    1  LIG1        0.1665
     23 C          -5.4455    1.3386   -0.3718 C.ar    1  LIG1       -0.0159
     24 C          -5.0594    2.0386    0.7463 C.ar    1  LIG1        0.1662
     25 C          -0.5436   -3.7334    1.6596 C.ar    1  LIG1       -0.0195
     26 C           1.5585   -4.0184    0.5363 C.ar    1  LIG1       -0.0195
     27 C           4.2616    0.6753    0.3769 C.3     1  LIG1        0.0148
     28 C           3.7154    3.0995    0.8184 C.3     1  LIG1        0.0148
     29 C           0.7009   -4.3607    1.5756 C.ar    1  LIG1        0.1201
     30 C           4.1002   -0.2041    1.6271 C.3     1  LIG1       -0.0374
     31 C           4.8692    3.7315    0.0303 C.3     1  LIG1       -0.0374
     32 C          -4.9363    3.1764    2.5776 C.3     1  LIG1        0.2332
     33 C           4.4326    0.4491    2.9706 C.3     1  LIG1       -0.0545
     34 C           5.2664    5.1161    0.5502 C.3     1  LIG1       -0.0545
     35 C           5.8650    0.9474    3.0765 C.3     1  LIG1       -0.0652
     36 C           5.8389    5.0901    1.9604 C.3     1  LIG1       -0.0652
     37 C           2.2719   -5.8092    2.6168 C.3     1  LIG1        0.0788
     38 H          -0.3366    0.2398    0.0890 H       1  LIG1        0.2045
     39 H          -2.5875   -1.4910   -0.9944 H       1  LIG1        0.0427
     40 H          -2.4494    0.6991   -2.8897 H       1  LIG1        0.0409
     41 H           0.2460   -1.4961   -2.1983 H       1  LIG1        0.0911
     42 H          -0.1101    0.9267   -2.7781 H       1  LIG1        0.0821
     43 H          -0.5782    2.0446   -1.4705 H       1  LIG1        0.0821
     44 H           1.9642    0.2741   -1.7709 H       1  LIG1        0.0913
     45 H           1.9446   -0.5381   -0.1736 H       1  LIG1        0.0913
     46 H          -1.6952    1.9682    0.5359 H       1  LIG1        0.0658
     47 H          -4.7281    0.2657   -2.0863 H       1  LIG1        0.0622
     48 H          -1.9032   -2.2921    0.8607 H       1  LIG1        0.0623
     49 H           1.8528   -2.8365   -1.2212 H       1  LIG1        0.0623
     50 H          -6.4931    1.1899   -0.6086 H       1  LIG1        0.0655
     51 H          -1.2365   -4.0264    2.4462 H       1  LIG1        0.0654
     52 H           2.5229   -4.4990    0.4085 H       1  LIG1        0.0654
     53 H           5.2833    1.0529    0.2996 H       1  LIG1        0.0464
     54 H           4.1170    0.0424   -0.5058 H       1  LIG1        0.0464
     55 H           3.9847    2.9688    1.8671 H       1  LIG1        0.0464
     56 H           2.8697    3.7954    0.8001 H       1  LIG1        0.0464
     57 H           4.7432   -1.0849    1.5049 H       1  LIG1        0.0280
     58 H           3.0735   -0.5810    1.6896 H       1  LIG1        0.0280
     59 H           4.5752    3.8209   -1.0229 H       1  LIG1        0.0280
     60 H           5.7554    3.0886    0.0482 H       1  LIG1        0.0280
     61 H          -5.1073    4.2574    2.6394 H       1  LIG1        0.1166
     62 H          -5.1005    2.7375    3.5686 H       1  LIG1        0.1166
     63 H           4.2696   -0.2946    3.7605 H       1  LIG1        0.0263
     64 H           3.7342    1.2651    3.1812 H       1  LIG1        0.0263
     65 H           4.4040    5.7912    0.5175 H       1  LIG1        0.0263
     66 H           6.0238    5.5350   -0.1233 H       1  LIG1        0.0263
     67 H           6.5760    0.1367    2.8901 H       1  LIG1        0.0230
     68 H           6.0523    1.3374    4.0823 H       1  LIG1        0.0230
     69 H           6.0695    1.7539    2.3678 H       1  LIG1        0.0230
     70 H           5.0831    4.7988    2.6956 H       1  LIG1        0.0230
     71 H           6.2025    6.0848    2.2375 H       1  LIG1        0.0230
     72 H           6.6786    4.3914    2.0322 H       1  LIG1        0.0230
     73 H           2.3188   -6.4935    3.4694 H       1  LIG1        0.0660
     74 H           2.9988   -5.0085    2.7915 H       1  LIG1        0.0660
     75 H           2.5240   -6.3815    1.7181 H       1  LIG1        0.0660
@<TRIPOS>BOND
     1     1    16   ar
     2     2    16   ar
     3     3    22    1
     4     3    32    1
     5     4    18    2
     6     5    24    1
     7     5    32    1
     8     6    29    1
     9     6    37    1
    10     7    11    1
    11     7    12    1
    12     7    15    1
    13     8    18   am
    14     8    27    1
    15     8    28    1
    16     9    10    1
    17     9    11    1
    18     9    16    1
    19    10    12    1
    20    10    13    1
    21    11    14    1
    22    13    17   ar
    23    13    19   ar
    24    14    20   ar
    25    14    21   ar
    26    15    18    1
    27    17    22   ar
    28    19    23   ar
    29    20    25   ar
    30    21    26   ar
    31    22    24   ar
    32    23    24   ar
    33    25    29   ar
    34    26    29   ar
    35    27    30    1
    36    28    31    1
    37    30    33    1
    38    31    34    1
    39    33    35    1
    40    34    36    1
    41     7    38    1
    42     9    39    1
    43    10    40    1
    44    11    41    1
    45    12    42    1
    46    12    43    1
    47    15    44    1
    48    15    45    1
    49    17    46    1
    50    19    47    1
    51    20    48    1
    52    21    49    1
    53    23    50    1
    54    25    51    1
    55    26    52    1
    56    27    53    1
    57    27    54    1
    58    28    55    1
    59    28    56    1
    60    30    57    1
    61    30    58    1
    62    31    59    1
    63    31    60    1
    64    32    61    1
    65    32    62    1
    66    33    63    1
    67    33    64    1
    68    34    65    1
    69    34    66    1
    70    35    67    1
    71    35    68    1
    72    35    69    1
    73    36    70    1
    74    36    71    1
    75    36    72    1
    76    37    73    1
    77    37    74    1
    78    37    75    1
@<TRIPOS>MOLECULE
159594
 75 78 0 0 0
SMALL
GASTEIGER

@<TRIPOS>ATOM
      1 O          -1.2011   -1.2351   -3.9903 O.co2   1  LIG1       -0.5493
      2 O          -2.1607   -3.1203   -3.1288 O.co2   1  LIG1       -0.5493
      3 O          -4.6964    4.1511   -0.2268 O.3     1  LIG1       -0.4526
      4 O           0.9867    2.5221   -0.2509 O.2     1  LIG1       -0.2697
      5 O          -5.6547    2.9634    1.6407 O.3     1  LIG1       -0.4526
      6 O           0.8545   -5.4422    2.4807 O.3     1  LIG1       -0.4951
      7 N           0.0134    0.0819   -1.0167 N.4     1  LIG1        0.2481
      8 N           3.2352    2.0465   -0.3989 N.am    1  LIG1       -0.2971
      9 C          -1.8464   -1.2670   -1.7292 C.3     1  LIG1        0.0574
     10 C          -2.2031    0.2147   -1.9123 C.3     1  LIG1        0.0378
     11 C          -0.3727   -1.3595   -1.3212 C.3     1  LIG1        0.0143
     12 C          -0.8254    0.8850   -1.9944 C.3     1  LIG1       -0.0230
     13 C          -3.0869    0.8820   -0.8547 C.ar    1  LIG1       -0.0347
     14 C          -0.0885   -2.3651   -0.2125 C.ar    1  LIG1        0.0011
     15 C           1.5035    0.3576   -1.1225 C.3     1  LIG1        0.0468
     16 C          -1.7533   -1.9320   -3.0960 C.2     1  LIG1        0.0513
     17 C          -3.4239    2.2420   -1.0498 C.ar    1  LIG1       -0.0125
     18 C           1.8858    1.7378   -0.5670 C.2     1  LIG1        0.2608
     19 C          -3.6541    0.2071    0.2488 C.ar    1  LIG1       -0.0544
     20 C          -0.1176   -3.7299   -0.5545 C.ar    1  LIG1       -0.0498
     21 C           0.2521   -2.0334    1.1068 C.ar    1  LIG1       -0.0498
     22 C          -4.2785    2.8583   -0.1595 C.ar    1  LIG1        0.1665
     23 C          -4.5275    0.8596    1.1342 C.ar    1  LIG1       -0.0159
     24 C          -4.8194    2.1850    0.9024 C.ar    1  LIG1        0.1662
     25 C           0.1989   -4.7197    0.3766 C.ar    1  LIG1       -0.0195
     26 C           0.5772   -3.0330    2.0408 C.ar    1  LIG1       -0.0195
     27 C           3.6023    3.4050    0.0332 C.3     1  LIG1        0.0148
     28 C           4.3298    1.2170   -0.9243 C.3     1  LIG1        0.0148
     29 C           0.5513   -4.3795    1.6786 C.ar    1  LIG1        0.1201
     30 C           2.9580    3.9181    1.3279 C.3     1  LIG1       -0.0374
     31 C           5.2429    0.6867    0.1847 C.3     1  LIG1       -0.0374
     32 C          -5.6020    4.1987    0.8955 C.3     1  LIG1        0.2332
     33 C           3.0823    2.9598    2.5110 C.3     1  LIG1       -0.0545
     34 C           6.3642   -0.1791   -0.3917 C.3     1  LIG1       -0.0545
     35 C           2.3525    3.5070    3.7302 C.3     1  LIG1       -0.0652
     36 C           7.3467   -0.6155    0.6836 C.3     1  LIG1       -0.0652
     37 C           1.0502   -5.1776    3.8624 C.3     1  LIG1        0.0788
     38 H          -0.3184    0.3562   -0.0862 H       1  LIG1        0.2045
     39 H          -2.5304   -1.8381   -1.0980 H       1  LIG1        0.0427
     40 H          -2.7429    0.3706   -2.8567 H       1  LIG1        0.0409
     41 H           0.3066   -1.6409   -2.1394 H       1  LIG1        0.0911
     42 H          -0.3611    0.7983   -2.9809 H       1  LIG1        0.0821
     43 H          -0.8137    1.9325   -1.6886 H       1  LIG1        0.0821
     44 H           1.7794    0.2831   -2.1781 H       1  LIG1        0.0913
     45 H           2.0104   -0.4104   -0.5323 H       1  LIG1        0.0913
     46 H          -3.0522    2.8074   -1.8989 H       1  LIG1        0.0658
     47 H          -3.4662   -0.8476    0.4332 H       1  LIG1        0.0622
     48 H          -0.3897   -4.0461   -1.5639 H       1  LIG1        0.0623
     49 H           0.2895   -1.0037    1.4483 H       1  LIG1        0.0623
     50 H          -4.9826    0.3292    1.9643 H       1  LIG1        0.0655
     51 H           0.1652   -5.7654    0.0768 H       1  LIG1        0.0654
     52 H           0.8551   -2.7273    3.0445 H       1  LIG1        0.0654
     53 H           3.3476    4.0830   -0.7903 H       1  LIG1        0.0464
     54 H           4.6906    3.4524    0.1540 H       1  LIG1        0.0464
     55 H           4.8983    1.8326   -1.6321 H       1  LIG1        0.0464
     56 H           3.9365    0.3742   -1.4975 H       1  LIG1        0.0464
     57 H           1.9033    4.1587    1.1583 H       1  LIG1        0.0280
     58 H           3.4336    4.8731    1.5872 H       1  LIG1        0.0280
     59 H           4.6524    0.1021    0.9009 H       1  LIG1        0.0280
     60 H           5.6805    1.5198    0.7463 H       1  LIG1        0.0280
     61 H          -6.6073    4.4306    0.5244 H       1  LIG1        0.1166
     62 H          -5.2831    5.0019    1.5699 H       1  LIG1        0.1166
     63 H           4.1386    2.8040    2.7557 H       1  LIG1        0.0263
     64 H           2.6561    1.9819    2.2626 H       1  LIG1        0.0263
     65 H           6.9076    0.3782   -1.1641 H       1  LIG1        0.0263
     66 H           5.9369   -1.0666   -0.8725 H       1  LIG1        0.0263
     67 H           2.7655    4.4735    4.0353 H       1  LIG1        0.0230
     68 H           2.4448    2.8142    4.5720 H       1  LIG1        0.0230
     69 H           1.2866    3.6417    3.5191 H       1  LIG1        0.0230
     70 H           7.8330    0.2507    1.1437 H       1  LIG1        0.0230
     71 H           8.1265   -1.2493    0.2494 H       1  LIG1        0.0230
     72 H           6.8427   -1.1857    1.4702 H       1  LIG1        0.0230
     73 H           1.1868   -6.1380    4.3694 H       1  LIG1        0.0660
     74 H           0.1738   -4.6904    4.3017 H       1  LIG1        0.0660
     75 H           1.9557   -4.5837    4.0224 H       1  LIG1        0.0660
@<TRIPOS>BOND
     1     1    16   ar
     2     2    16   ar
     3     3    22    1
     4     3    32    1
     5     4    18    2
     6     5    24    1
     7     5    32    1
     8     6    29    1
     9     6    37    1
    10     7    11    1
    11     7    12    1
    12     7    15    1
    13     8    18   am
    14     8    27    1
    15     8    28    1
    16     9    10    1
    17     9    11    1
    18     9    16    1
    19    10    12    1
    20    10    13    1
    21    11    14    1
    22    13    17   ar
    23    13    19   ar
    24    14    20   ar
    25    14    21   ar
    26    15    18    1
    27    17    22   ar
    28    19    23   ar
    29    20    25   ar
    30    21    26   ar
    31    22    24   ar
    32    23    24   ar
    33    25    29   ar
    34    26    29   ar
    35    27    30    1
    36    28    31    1
    37    30    33    1
    38    31    34    1
    39    33    35    1
    40    34    36    1
    41     7    38    1
    42     9    39    1
    43    10    40    1
    44    11    41    1
    45    12    42    1
    46    12    43    1
    47    15    44    1
    48    15    45    1
    49    17    46    1
    50    19    47    1
    51    20    48    1
    52    21    49    1
    53    23    50    1
    54    25    51    1
    55    26    52    1
    56    27    53    1
    57    27    54    1
    58    28    55    1
    59    28    56    1
    60    30    57    1
    61    30    58    1
    62    31    59    1
    63    31    60    1
    64    32    61    1
    65    32    62    1
    66    33    63    1
    67    33    64    1
    68    34    65    1
    69    34    66    1
    70    35    67    1
    71    35    68    1
    72    35    69    1
    73    36    70    1
    74    36    71    1
    75    36    72    1
    76    37    73    1
    77    37    74    1
    78    37    75    1
@<TRIPOS>MOLECULE
159594
 75 78 0 0 0
SMALL
GASTEIGER

@<TRIPOS>ATOM
      1 O          -1.5986   -1.2960   -3.9602 O.co2   1  LIG1       -0.5493
      2 O          -2.3047   -3.1747   -2.8703 O.co2   1  LIG1       -0.5493
      3 O          -6.3813    0.2934    0.9633 O.3     1  LIG1       -0.4526
      4 O           1.0470    2.2093    0.2478 O.2     1  LIG1       -0.2697
      5 O          -5.9781    2.5131    1.8162 O.3     1  LIG1       -0.4526
      6 O           1.2277   -5.1840    2.4553 O.3     1  LIG1       -0.4951
      7 N          -0.0401    0.1122   -1.1044 N.4     1  LIG1        0.2481
      8 N           2.7772    2.5576   -1.2403 N.am    1  LIG1       -0.2971
      9 C          -1.9536   -1.2096   -1.6430 C.3     1  LIG1        0.0574
     10 C          -2.2951    0.2807   -1.8630 C.3     1  LIG1        0.0378
     11 C          -0.4464   -1.3193   -1.3995 C.3     1  LIG1        0.0143
     12 C          -0.9109    0.9037   -2.0522 C.3     1  LIG1       -0.0230
     13 C          -3.1749    0.8971   -0.7708 C.ar    1  LIG1       -0.0347
     14 C          -0.0358   -2.3310   -0.3448 C.ar    1  LIG1        0.0011
     15 C           1.4323    0.4078   -1.2584 C.3     1  LIG1        0.0468
     16 C          -1.9931   -1.9635   -2.9622 C.2     1  LIG1        0.0513
     17 C          -4.3421    0.2109   -0.3740 C.ar    1  LIG1       -0.0125
     18 C           1.7464    1.8023   -0.6878 C.2     1  LIG1        0.2608
     19 C          -2.9671    2.2029   -0.2572 C.ar    1  LIG1       -0.0544
     20 C           0.3494   -3.6123   -0.7834 C.ar    1  LIG1       -0.0498
     21 C          -0.0308   -2.0781    1.0309 C.ar    1  LIG1       -0.0498
     22 C          -5.2141    0.8210    0.5067 C.ar    1  LIG1        0.1665
     23 C          -3.8716    2.7987    0.6325 C.ar    1  LIG1       -0.0159
     24 C          -4.9863    2.0824    0.9936 C.ar    1  LIG1        0.1662
     25 C           0.7761   -4.5952    0.1142 C.ar    1  LIG1       -0.0195
     26 C           0.4011   -3.0657    1.9276 C.ar    1  LIG1       -0.0195
     27 C           3.0060    3.9064   -0.7009 C.3     1  LIG1        0.0148
     28 C           3.2827    2.3217   -2.6001 C.3     1  LIG1        0.0148
     29 C           0.8178   -4.3214    1.4760 C.ar    1  LIG1        0.1201
     30 C           3.4403    3.9602    0.7681 C.3     1  LIG1       -0.0374
     31 C           2.3533    2.9482   -3.6448 C.3     1  LIG1       -0.0374
     32 C          -6.8712    1.3800    1.7758 C.3     1  LIG1        0.2332
     33 C           4.6990    3.1433    1.0573 C.3     1  LIG1       -0.0545
     34 C           2.7579    2.5866   -5.0708 C.3     1  LIG1       -0.0545
     35 C           5.1208    3.2881    2.5122 C.3     1  LIG1       -0.0652
     36 C           1.8784    3.3009   -6.0865 C.3     1  LIG1       -0.0652
     37 C           1.7021   -6.4568    2.0273 C.3     1  LIG1        0.0788
     38 H          -0.3134    0.3709   -0.1467 H       1  LIG1        0.2045
     39 H          -2.5522   -1.7142   -0.8793 H       1  LIG1        0.0427
     40 H          -2.8708    0.4406   -2.7848 H       1  LIG1        0.0409
     41 H           0.1435   -1.5628   -2.2962 H       1  LIG1        0.0911
     42 H          -0.5183    0.7470   -3.0630 H       1  LIG1        0.0821
     43 H          -0.8117    1.9629   -1.8176 H       1  LIG1        0.0821
     44 H           1.6636    0.2973   -2.3166 H       1  LIG1        0.0913
     45 H           1.9863   -0.3293   -0.6697 H       1  LIG1        0.0913
     46 H          -4.5952   -0.7684   -0.7730 H       1  LIG1        0.0658
     47 H          -2.1234    2.8174   -0.5554 H       1  LIG1        0.0622
     48 H           0.2950   -3.8695   -1.8435 H       1  LIG1        0.0623
     49 H          -0.3673   -1.1302    1.4396 H       1  LIG1        0.0623
     50 H          -3.7148    3.8059    1.0031 H       1  LIG1        0.0655
     51 H           1.0508   -5.5641   -0.2895 H       1  LIG1        0.0654
     52 H           0.4043   -2.8580    2.9955 H       1  LIG1        0.0654
     53 H           2.0798    4.4791   -0.8320 H       1  LIG1        0.0464
     54 H           3.7796    4.3985   -1.3023 H       1  LIG1        0.0464
     55 H           3.3920    1.2477   -2.7708 H       1  LIG1        0.0464
     56 H           4.2916    2.7440   -2.6754 H       1  LIG1        0.0464
     57 H           2.6309    3.6241    1.4244 H       1  LIG1        0.0280
     58 H           3.6239    5.0107    1.0272 H       1  LIG1        0.0280
     59 H           2.3576    4.0389   -3.5254 H       1  LIG1        0.0280
     60 H           1.3201    2.6243   -3.4710 H       1  LIG1        0.0280
     61 H          -7.0194    1.0159    2.7987 H       1  LIG1        0.1166
     62 H          -7.8374    1.7091    1.3756 H       1  LIG1        0.1166
     63 H           5.5180    3.4728    0.4081 H       1  LIG1        0.0263
     64 H           4.5192    2.0834    0.8455 H       1  LIG1        0.0263
     65 H           2.6702    1.5035   -5.2165 H       1  LIG1        0.0263
     66 H           3.8051    2.8578   -5.2458 H       1  LIG1        0.0263
     67 H           5.3571    4.3303    2.7497 H       1  LIG1        0.0230
     68 H           6.0103    2.6832    2.7126 H       1  LIG1        0.0230
     69 H           4.3245    2.9554    3.1861 H       1  LIG1        0.0230
     70 H           0.8226    3.0519   -5.9381 H       1  LIG1        0.0230
     71 H           2.1570    3.0098   -7.1040 H       1  LIG1        0.0230
     72 H           1.9883    4.3871   -6.0026 H       1  LIG1        0.0230
     73 H           2.0151   -7.0150    2.9155 H       1  LIG1        0.0660
     74 H           2.5771   -6.3542    1.3755 H       1  LIG1        0.0660
     75 H           0.9089   -7.0312    1.5362 H       1  LIG1        0.0660
@<TRIPOS>BOND
     1     1    16   ar
     2     2    16   ar
     3     3    22    1
     4     3    32    1
     5     4    18    2
     6     5    24    1
     7     5    32    1
     8     6    29    1
     9     6    37    1
    10     7    11    1
    11     7    12    1
    12     7    15    1
    13     8    18   am
    14     8    27    1
    15     8    28    1
    16     9    10    1
    17     9    11    1
    18     9    16    1
    19    10    12    1
    20    10    13    1
    21    11    14    1
    22    13    17   ar
    23    13    19   ar
    24    14    20   ar
    25    14    21   ar
    26    15    18    1
    27    17    22   ar
    28    19    23   ar
    29    20    25   ar
    30    21    26   ar
    31    22    24   ar
    32    23    24   ar
    33    25    29   ar
    34    26    29   ar
    35    27    30    1
    36    28    31    1
    37    30    33    1
    38    31    34    1
    39    33    35    1
    40    34    36    1
    41     7    38    1
    42     9    39    1
    43    10    40    1
    44    11    41    1
    45    12    42    1
    46    12    43    1
    47    15    44    1
    48    15    45    1
    49    17    46    1
    50    19    47    1
    51    20    48    1
    52    21    49    1
    53    23    50    1
    54    25    51    1
    55    26    52    1
    56    27    53    1
    57    27    54    1
    58    28    55    1
    59    28    56    1
    60    30    57    1
    61    30    58    1
    62    31    59    1
    63    31    60    1
    64    32    61    1
    65    32    62    1
    66    33    63    1
    67    33    64    1
    68    34    65    1
    69    34    66    1
    70    35    67    1
    71    35    68    1
    72    35    69    1
    73    36    70    1
    74    36    71    1
    75    36    72    1
    76    37    73    1
    77    37    74    1
    78    37    75    1
@<TRIPOS>MOLECULE
159594
 75 78 0 0 0
SMALL
GASTEIGER

@<TRIPOS>ATOM
      1 O          -1.4549   -1.2798   -3.9874 O.co2   1  LIG1       -0.5493
      2 O          -2.1690   -3.2125   -3.0017 O.co2   1  LIG1       -0.5493
      3 O          -5.6276    3.6623   -0.6552 O.3     1  LIG1       -0.4526
      4 O           1.0199    2.1877    0.3060 O.2     1  LIG1       -0.2697
      5 O          -5.7828    2.9320    1.6381 O.3     1  LIG1       -0.4526
      6 O           1.1953   -5.2206    2.4655 O.3     1  LIG1       -0.4951
      7 N          -0.1029    0.1013   -1.0595 N.4     1  LIG1        0.2481
      8 N           2.7149    2.5610   -1.2187 N.am    1  LIG1       -0.2971
      9 C          -1.9647   -1.2767   -1.6931 C.3     1  LIG1        0.0574
     10 C          -2.3432    0.1932   -1.9062 C.3     1  LIG1        0.0378
     11 C          -0.4687   -1.3382   -1.3790 C.3     1  LIG1        0.0143
     12 C          -0.9980    0.9141   -1.9702 C.3     1  LIG1       -0.0230
     13 C          -3.2445    0.8534   -0.8718 C.ar    1  LIG1       -0.0347
     14 C          -0.0753   -2.3530   -0.3191 C.ar    1  LIG1        0.0011
     15 C           1.3657    0.4190   -1.2434 C.3     1  LIG1        0.0468
     16 C          -1.8959   -1.9899   -3.0369 C.2     1  LIG1        0.0513
     17 C          -4.0075    1.9625   -1.2985 C.ar    1  LIG1       -0.0125
     18 C           1.6922    1.8010   -0.6568 C.2     1  LIG1        0.2608
     19 C          -3.3396    0.4392    0.4737 C.ar    1  LIG1       -0.0544
     20 C           0.2625   -3.6485   -0.7559 C.ar    1  LIG1       -0.0498
     21 C          -0.0208   -2.0902    1.0543 C.ar    1  LIG1       -0.0498
     22 C          -4.8285    2.5953   -0.3914 C.ar    1  LIG1        0.1665
     23 C          -4.1801    1.1076    1.3751 C.ar    1  LIG1       -0.0159
     24 C          -4.9136    2.1798    0.9118 C.ar    1  LIG1        0.1662
     25 C           0.6875   -4.6368    0.1358 C.ar    1  LIG1       -0.0195
     26 C           0.4060   -3.0848    1.9463 C.ar    1  LIG1       -0.0195
     27 C           2.9505    3.9075   -0.6784 C.3     1  LIG1        0.0148
     28 C           3.2280    2.3191   -2.5749 C.3     1  LIG1        0.0148
     29 C           0.7769   -4.3540    1.4937 C.ar    1  LIG1        0.1201
     30 C           3.4042    3.9591    0.7847 C.3     1  LIG1       -0.0374
     31 C           2.3138    2.9530   -3.6282 C.3     1  LIG1       -0.0374
     32 C          -6.2706    3.8373    0.6240 C.3     1  LIG1        0.2332
     33 C           4.6607    3.1337    1.0597 C.3     1  LIG1       -0.0545
     34 C           2.7281    2.5841   -5.0500 C.3     1  LIG1       -0.0545
     35 C           5.0976    3.2741    2.5104 C.3     1  LIG1       -0.0652
     36 C           1.8711    3.3108   -6.0761 C.3     1  LIG1       -0.0652
     37 C           1.6910   -6.4809    2.0245 C.3     1  LIG1        0.0788
     38 H          -0.3584    0.3447   -0.0947 H       1  LIG1        0.2045
     39 H          -2.6123   -1.8199   -0.9984 H       1  LIG1        0.0427
     40 H          -2.8672    0.3190   -2.8632 H       1  LIG1        0.0409
     41 H           0.1702   -1.5641   -2.2460 H       1  LIG1        0.0911
     42 H          -0.5623    0.8860   -2.9744 H       1  LIG1        0.0821
     43 H          -1.0105    1.9460   -1.6051 H       1  LIG1        0.0821
     44 H           1.5715    0.3312   -2.3094 H       1  LIG1        0.0913
     45 H           1.9405   -0.3263   -0.6852 H       1  LIG1        0.0913
     46 H          -3.9759    2.3149   -2.3259 H       1  LIG1        0.0658
     47 H          -2.7826   -0.4194    0.8393 H       1  LIG1        0.0622
     48 H           0.1806   -3.9107   -1.8136 H       1  LIG1        0.0623
     49 H          -0.3023   -1.1275    1.4685 H       1  LIG1        0.0623
     50 H          -4.2661    0.7869    2.4081 H       1  LIG1        0.0655
     51 H           0.9263   -5.6149   -0.2694 H       1  LIG1        0.0654
     52 H           0.4504   -2.8702    3.0122 H       1  LIG1        0.0654
     53 H           2.0225    4.4800   -0.7958 H       1  LIG1        0.0464
     54 H           3.7154    4.4024   -1.2890 H       1  LIG1        0.0464
     55 H           3.3293    1.2439   -2.7439 H       1  LIG1        0.0464
     56 H           4.2415    2.7318   -2.6425 H       1  LIG1        0.0464
     57 H           2.6003    3.6293    1.4507 H       1  LIG1        0.0280
     58 H           3.5983    5.0086    1.0408 H       1  LIG1        0.0280
     59 H           2.3287    4.0438   -3.5109 H       1  LIG1        0.0280
     60 H           1.2758    2.6401   -3.4623 H       1  LIG1        0.0280
     61 H          -7.3485    3.6789    0.4987 H       1  LIG1        0.1166
     62 H          -6.1041    4.8667    0.9611 H       1  LIG1        0.1166
     63 H           5.4751    3.4589    0.4026 H       1  LIG1        0.0263
     64 H           4.4722    2.0752    0.8486 H       1  LIG1        0.0263
     65 H           2.6259    1.5025   -5.1958 H       1  LIG1        0.0263
     66 H           3.7811    2.8388   -5.2144 H       1  LIG1        0.0263
     67 H           5.3430    4.3145    2.7468 H       1  LIG1        0.0230
     68 H           5.9850    2.6631    2.7019 H       1  LIG1        0.0230
     69 H           4.3057    2.9460    3.1917 H       1  LIG1        0.0230
     70 H           0.8099    3.0791   -5.9388 H       1  LIG1        0.0230
     71 H           2.1562    3.0138   -7.0900 H       1  LIG1        0.0230
     72 H           1.9977    4.3953   -5.9925 H       1  LIG1        0.0230
     73 H           2.0354   -7.0332    2.9042 H       1  LIG1        0.0660
     74 H           2.5491   -6.3565    1.3547 H       1  LIG1        0.0660
     75 H           0.9014   -7.0721    1.5487 H       1  LIG1        0.0660
@<TRIPOS>BOND
     1     1    16   ar
     2     2    16   ar
     3     3    22    1
     4     3    32    1
     5     4    18    2
     6     5    24    1
     7     5    32    1
     8     6    29    1
     9     6    37    1
    10     7    11    1
    11     7    12    1
    12     7    15    1
    13     8    18   am
    14     8    27    1
    15     8    28    1
    16     9    10    1
    17     9    11    1
    18     9    16    1
    19    10    12    1
    20    10    13    1
    21    11    14    1
    22    13    17   ar
    23    13    19   ar
    24    14    20   ar
    25    14    21   ar
    26    15    18    1
    27    17    22   ar
    28    19    23   ar
    29    20    25   ar
    30    21    26   ar
    31    22    24   ar
    32    23    24   ar
    33    25    29   ar
    34    26    29   ar
    35    27    30    1
    36    28    31    1
    37    30    33    1
    38    31    34    1
    39    33    35    1
    40    34    36    1
    41     7    38    1
    42     9    39    1
    43    10    40    1
    44    11    41    1
    45    12    42    1
    46    12    43    1
    47    15    44    1
    48    15    45    1
    49    17    46    1
    50    19    47    1
    51    20    48    1
    52    21    49    1
    53    23    50    1
    54    25    51    1
    55    26    52    1
    56    27    53    1
    57    27    54    1
    58    28    55    1
    59    28    56    1
    60    30    57    1
    61    30    58    1
    62    31    59    1
    63    31    60    1
    64    32    61    1
    65    32    62    1
    66    33    63    1
    67    33    64    1
    68    34    65    1
    69    34    66    1
    70    35    67    1
    71    35    68    1
    72    35    69    1
    73    36    70    1
    74    36    71    1
    75    36    72    1
    76    37    73    1
    77    37    74    1
    78    37    75    1
@<TRIPOS>MOLECULE
159594
 75 78 0 0 0
SMALL
GASTEIGER

@<TRIPOS>ATOM
      1 O          -1.3816   -1.2156   -3.9375 O.co2   1  LIG1       -0.5493
      2 O          -2.3066   -3.0791   -2.9896 O.co2   1  LIG1       -0.5493
      3 O          -6.2339    0.2645    1.0150 O.3     1  LIG1       -0.4526
      4 O           1.8579    1.6073    0.7998 O.2     1  LIG1       -0.2697
      5 O          -5.9445    2.5511    1.7240 O.3     1  LIG1       -0.4526
      6 O           1.1762   -5.2021    2.6240 O.3     1  LIG1       -0.4951
      7 N           0.1079   -0.0255   -0.9629 N.4     1  LIG1        0.2481
      8 N           2.4866    2.5464   -1.2102 N.am    1  LIG1       -0.2971
      9 C          -1.8492   -1.2221   -1.6401 C.3     1  LIG1        0.0574
     10 C          -2.1188    0.2909   -1.7967 C.3     1  LIG1        0.0378
     11 C          -0.3588   -1.4187   -1.3571 C.3     1  LIG1        0.0143
     12 C          -0.6999    0.8684   -1.8648 C.3     1  LIG1       -0.0230
     13 C          -3.0500    0.9078   -0.7472 C.ar    1  LIG1       -0.0347
     14 C          -0.0054   -2.4513   -0.3035 C.ar    1  LIG1        0.0011
     15 C           1.6009    0.1725   -1.0702 C.3     1  LIG1        0.0468
     16 C          -1.8802   -1.8975   -2.9969 C.2     1  LIG1        0.0513
     17 C          -4.1850    0.1941   -0.3084 C.ar    1  LIG1       -0.0125
     18 C           2.0277    1.4959   -0.4187 C.2     1  LIG1        0.2608
     19 C          -2.9246    2.2609   -0.3362 C.ar    1  LIG1       -0.0544
     20 C           0.8370   -3.5190   -0.6608 C.ar    1  LIG1       -0.0498
     21 C          -0.4536   -2.3732    1.0203 C.ar    1  LIG1       -0.0498
     22 C          -5.0901    0.8181    0.5294 C.ar    1  LIG1        0.1665
     23 C          -3.8558    2.8671    0.5183 C.ar    1  LIG1       -0.0159
     24 C          -4.9289    2.1181    0.9335 C.ar    1  LIG1        0.1662
     25 C           1.2545   -4.4616    0.2834 C.ar    1  LIG1       -0.0195
     26 C          -0.0348   -3.3205    1.9619 C.ar    1  LIG1       -0.0195
     27 C           2.8329    2.3982   -2.6318 C.3     1  LIG1        0.0148
     28 C           2.9569    3.7738   -0.5455 C.3     1  LIG1        0.0148
     29 C           0.8299   -4.3588    1.6041 C.ar    1  LIG1        0.1201
     30 C           4.1535    1.6559   -2.8743 C.3     1  LIG1       -0.0374
     31 C           1.9434    4.5026    0.3473 C.3     1  LIG1       -0.0374
     32 C          -6.7864    1.3789    1.7461 C.3     1  LIG1        0.2332
     33 C           5.4256    2.4317   -2.5223 C.3     1  LIG1       -0.0545
     34 C           0.6183    4.8147   -0.3443 C.3     1  LIG1       -0.0545
     35 C           5.6417    3.6663   -3.3833 C.3     1  LIG1       -0.0652
     36 C          -0.3463    5.5065    0.6087 C.3     1  LIG1       -0.0652
     37 C           2.1214   -6.2222    2.3190 C.3     1  LIG1        0.0788
     38 H          -0.1620    0.1493    0.0139 H       1  LIG1        0.2045
     39 H          -2.4952   -1.7435   -0.9290 H       1  LIG1        0.0427
     40 H          -2.6256    0.5167   -2.7452 H       1  LIG1        0.0409
     41 H           0.2414   -1.6503   -2.2487 H       1  LIG1        0.0911
     42 H          -0.2746    0.7873   -2.8717 H       1  LIG1        0.0821
     43 H          -0.5720    1.8924   -1.5222 H       1  LIG1        0.0821
     44 H           1.8823    0.0596   -2.1159 H       1  LIG1        0.0913
     45 H           2.0832   -0.6295   -0.5024 H       1  LIG1        0.0913
     46 H          -4.4022   -0.8147   -0.6477 H       1  LIG1        0.0658
     47 H          -2.1325    2.9030   -0.7085 H       1  LIG1        0.0622
     48 H           1.1687   -3.6403   -1.6928 H       1  LIG1        0.0623
     49 H          -1.1383   -1.5908    1.3397 H       1  LIG1        0.0623
     50 H          -3.7563    3.9062    0.8126 H       1  LIG1        0.0655
     51 H           1.8987   -5.2670   -0.0529 H       1  LIG1        0.0654
     52 H          -0.3900   -3.2533    2.9886 H       1  LIG1        0.0654
     53 H           2.8256    3.3827   -3.1118 H       1  LIG1        0.0464
     54 H           2.0244    1.8430   -3.1175 H       1  LIG1        0.0464
     55 H           3.2953    4.4799   -1.3113 H       1  LIG1        0.0464
     56 H           3.8312    3.5044    0.0583 H       1  LIG1        0.0464
     57 H           4.2015    1.3762   -3.9345 H       1  LIG1        0.0280
     58 H           4.1623    0.7179   -2.3072 H       1  LIG1        0.0280
     59 H           2.4027    5.4415    0.6816 H       1  LIG1        0.0280
     60 H           1.7536    3.9280    1.2592 H       1  LIG1        0.0280
     61 H          -6.9373    1.0758    2.7882 H       1  LIG1        0.1166
     62 H          -7.7589    1.6373    1.3102 H       1  LIG1        0.1166
     63 H           6.2836    1.7625   -2.6633 H       1  LIG1        0.0263
     64 H           5.4273    2.7118   -1.4648 H       1  LIG1        0.0263
     65 H           0.1524    3.8935   -0.7004 H       1  LIG1        0.0263
     66 H           0.7912    5.4529   -1.2180 H       1  LIG1        0.0263
     67 H           5.6421    3.4073   -4.4467 H       1  LIG1        0.0230
     68 H           6.6079    4.1235   -3.1469 H       1  LIG1        0.0230
     69 H           4.8688    4.4202   -3.2121 H       1  LIG1        0.0230
     70 H          -0.5427    4.8835    1.4874 H       1  LIG1        0.0230
     71 H          -1.3008    5.6992    0.1111 H       1  LIG1        0.0230
     72 H           0.0600    6.4639    0.9518 H       1  LIG1        0.0230
     73 H           2.3187   -6.7824    3.2368 H       1  LIG1        0.0660
     74 H           3.0705   -5.7921    1.9814 H       1  LIG1        0.0660
     75 H           1.7208   -6.9244    1.5795 H       1  LIG1        0.0660
@<TRIPOS>BOND
     1     1    16   ar
     2     2    16   ar
     3     3    22    1
     4     3    32    1
     5     4    18    2
     6     5    24    1
     7     5    32    1
     8     6    29    1
     9     6    37    1
    10     7    11    1
    11     7    12    1
    12     7    15    1
    13     8    18   am
    14     8    27    1
    15     8    28    1
    16     9    10    1
    17     9    11    1
    18     9    16    1
    19    10    12    1
    20    10    13    1
    21    11    14    1
    22    13    17   ar
    23    13    19   ar
    24    14    20   ar
    25    14    21   ar
    26    15    18    1
    27    17    22   ar
    28    19    23   ar
    29    20    25   ar
    30    21    26   ar
    31    22    24   ar
    32    23    24   ar
    33    25    29   ar
    34    26    29   ar
    35    27    30    1
    36    28    31    1
    37    30    33    1
    38    31    34    1
    39    33    35    1
    40    34    36    1
    41     7    38    1
    42     9    39    1
    43    10    40    1
    44    11    41    1
    45    12    42    1
    46    12    43    1
    47    15    44    1
    48    15    45    1
    49    17    46    1
    50    19    47    1
    51    20    48    1
    52    21    49    1
    53    23    50    1
    54    25    51    1
    55    26    52    1
    56    27    53    1
    57    27    54    1
    58    28    55    1
    59    28    56    1
    60    30    57    1
    61    30    58    1
    62    31    59    1
    63    31    60    1
    64    32    61    1
    65    32    62    1
    66    33    63    1
    67    33    64    1
    68    34    65    1
    69    34    66    1
    70    35    67    1
    71    35    68    1
    72    35    69    1
    73    36    70    1
    74    36    71    1
    75    36    72    1
    76    37    73    1
    77    37    74    1
    78    37    75    1
@<TRIPOS>MOLECULE
159594
 75 78 0 0 0
SMALL
GASTEIGER

@<TRIPOS>ATOM
      1 O          -1.5646   -1.3074   -3.8977 O.co2   1  LIG1       -0.5493
      2 O          -2.3677   -3.1383   -2.7947 O.co2   1  LIG1       -0.5493
      3 O          -6.8160    1.5597   -0.4675 O.3     1  LIG1       -0.4526
      4 O           1.2044    2.0984    0.4037 O.2     1  LIG1       -0.2697
      5 O          -6.0924    2.7014    1.5301 O.3     1  LIG1       -0.4526
      6 O           1.1992   -5.2488    2.4419 O.3     1  LIG1       -0.4951
      7 N           0.0048    0.0988   -1.0295 N.4     1  LIG1        0.2481
      8 N           2.7344    2.5807   -1.2500 N.am    1  LIG1       -0.2971
      9 C          -1.9424   -1.1733   -1.5888 C.3     1  LIG1        0.0574
     10 C          -2.2425    0.3097   -1.8341 C.3     1  LIG1        0.0378
     11 C          -0.4364   -1.3161   -1.3602 C.3     1  LIG1        0.0143
     12 C          -0.8677    0.9610   -1.9121 C.3     1  LIG1       -0.0230
     13 C          -3.2008    0.9150   -0.8173 C.ar    1  LIG1       -0.0347
     14 C          -0.0393   -2.3510   -0.3225 C.ar    1  LIG1        0.0011
     15 C           1.4800    0.3754   -1.2115 C.3     1  LIG1        0.0468
     16 C          -2.0009   -1.9432   -2.8973 C.2     1  LIG1        0.0513
     17 C          -4.5769    0.8571   -1.1228 C.ar    1  LIG1       -0.0125
     18 C           1.8156    1.7544   -0.6164 C.2     1  LIG1        0.2608
     19 C          -2.7953    1.5738    0.3661 C.ar    1  LIG1       -0.0544
     20 C           0.3635   -3.6194   -0.7801 C.ar    1  LIG1       -0.0498
     21 C          -0.0644   -2.1277    1.0592 C.ar    1  LIG1       -0.0498
     22 C          -5.4722    1.4826   -0.2819 C.ar    1  LIG1        0.1665
     23 C          -3.7316    2.1868    1.2104 C.ar    1  LIG1       -0.0159
     24 C          -5.0601    2.1329    0.8526 C.ar    1  LIG1        0.1662
     25 C           0.7818   -4.6172    0.1051 C.ar    1  LIG1       -0.0195
     26 C           0.3604   -3.1288    1.9430 C.ar    1  LIG1       -0.0195
     27 C           2.9153    3.9401   -0.7201 C.3     1  LIG1        0.0148
     28 C           3.2589    2.3394   -2.6005 C.3     1  LIG1        0.0148
     29 C           0.7978   -4.3703    1.4735 C.ar    1  LIG1        0.1201
     30 C           3.6857    3.9723    0.6024 C.3     1  LIG1       -0.0374
     31 C           2.3203    2.9246   -3.6599 C.3     1  LIG1       -0.0374
     32 C          -7.2022    2.3473    0.6766 C.3     1  LIG1        0.2332
     33 C           3.9837    5.4000    1.0690 C.3     1  LIG1       -0.0545
     34 C           2.7519    2.5643   -5.0779 C.3     1  LIG1       -0.0545
     35 C           5.0989    6.0657    0.2759 C.3     1  LIG1       -0.0652
     36 C           1.8778    3.2635   -6.1088 C.3     1  LIG1       -0.0652
     37 C           1.6983   -6.5058    1.9967 C.3     1  LIG1        0.0788
     38 H          -0.2201    0.3078   -0.0516 H       1  LIG1        0.2045
     39 H          -2.5667   -1.6328   -0.8144 H       1  LIG1        0.0427
     40 H          -2.7228    0.4831   -2.8071 H       1  LIG1        0.0409
     41 H           0.1469   -1.5490   -2.2632 H       1  LIG1        0.0911
     42 H          -0.4560    0.9065   -2.9262 H       1  LIG1        0.0821
     43 H          -0.8233    1.9949   -1.5581 H       1  LIG1        0.0821
     44 H           1.6882    0.2834   -2.2763 H       1  LIG1        0.0913
     45 H           2.0350   -0.3815   -0.6493 H       1  LIG1        0.0913
     46 H          -4.9379    0.3584   -2.0194 H       1  LIG1        0.0658
     47 H          -1.7510    1.6559    0.6510 H       1  LIG1        0.0622
     48 H           0.3286   -3.8553   -1.8459 H       1  LIG1        0.0623
     49 H          -0.4214   -1.1940    1.4828 H       1  LIG1        0.0623
     50 H          -3.4222    2.7072    2.1106 H       1  LIG1        0.0655
     51 H           1.0700   -5.5764   -0.3125 H       1  LIG1        0.0654
     52 H           0.3410   -2.9443    3.0151 H       1  LIG1        0.0654
     53 H           1.9233    4.3897   -0.5899 H       1  LIG1        0.0464
     54 H           3.4423    4.5376   -1.4710 H       1  LIG1        0.0464
     55 H           3.4013    1.2667   -2.7559 H       1  LIG1        0.0464
     56 H           4.2544    2.7936   -2.6701 H       1  LIG1        0.0464
     57 H           4.6186    3.4035    0.5112 H       1  LIG1        0.0280
     58 H           3.0959    3.4758    1.3811 H       1  LIG1        0.0280
     59 H           2.2869    4.0159   -3.5523 H       1  LIG1        0.0280
     60 H           1.2969    2.5692   -3.4919 H       1  LIG1        0.0280
     61 H          -7.9306    1.7786    1.2652 H       1  LIG1        0.1166
     62 H          -7.6788    3.2691    0.3224 H       1  LIG1        0.1166
     63 H           4.2827    5.3696    2.1235 H       1  LIG1        0.0263
     64 H           3.0761    6.0131    1.0142 H       1  LIG1        0.0263
     65 H           2.6824    1.4795   -5.2207 H       1  LIG1        0.0263
     66 H           3.7974    2.8499   -5.2389 H       1  LIG1        0.0263
     67 H           6.0219    5.4803    0.3353 H       1  LIG1        0.0230
     68 H           5.3050    7.0619    0.6803 H       1  LIG1        0.0230
     69 H           4.8330    6.1836   -0.7782 H       1  LIG1        0.0230
     70 H           0.8226    3.0046   -5.9719 H       1  LIG1        0.0230
     71 H           2.1727    2.9697   -7.1205 H       1  LIG1        0.0230
     72 H           1.9756    4.3512   -6.0295 H       1  LIG1        0.0230
     73 H           2.0078   -7.0752    2.8787 H       1  LIG1        0.0660
     74 H           2.5805   -6.3777    1.3594 H       1  LIG1        0.0660
     75 H           0.9210   -7.0817    1.4844 H       1  LIG1        0.0660
@<TRIPOS>BOND
     1     1    16   ar
     2     2    16   ar
     3     3    22    1
     4     3    32    1
     5     4    18    2
     6     5    24    1
     7     5    32    1
     8     6    29    1
     9     6    37    1
    10     7    11    1
    11     7    12    1
    12     7    15    1
    13     8    18   am
    14     8    27    1
    15     8    28    1
    16     9    10    1
    17     9    11    1
    18     9    16    1
    19    10    12    1
    20    10    13    1
    21    11    14    1
    22    13    17   ar
    23    13    19   ar
    24    14    20   ar
    25    14    21   ar
    26    15    18    1
    27    17    22   ar
    28    19    23   ar
    29    20    25   ar
    30    21    26   ar
    31    22    24   ar
    32    23    24   ar
    33    25    29   ar
    34    26    29   ar
    35    27    30    1
    36    28    31    1
    37    30    33    1
    38    31    34    1
    39    33    35    1
    40    34    36    1
    41     7    38    1
    42     9    39    1
    43    10    40    1
    44    11    41    1
    45    12    42    1
    46    12    43    1
    47    15    44    1
    48    15    45    1
    49    17    46    1
    50    19    47    1
    51    20    48    1
    52    21    49    1
    53    23    50    1
    54    25    51    1
    55    26    52    1
    56    27    53    1
    57    27    54    1
    58    28    55    1
    59    28    56    1
    60    30    57    1
    61    30    58    1
    62    31    59    1
    63    31    60    1
    64    32    61    1
    65    32    62    1
    66    33    63    1
    67    33    64    1
    68    34    65    1
    69    34    66    1
    70    35    67    1
    71    35    68    1
    72    35    69    1
    73    36    70    1
    74    36    71    1
    75    36    72    1
    76    37    73    1
    77    37    74    1
    78    37    75    1
@<TRIPOS>MOLECULE
159594
 75 78 0 0 0
SMALL
GASTEIGER

@<TRIPOS>ATOM
      1 O          -2.8470   -2.9024   -2.6718 O.co2   1  LIG1       -0.5493
      2 O          -1.5224   -1.4028   -3.7753 O.co2   1  LIG1       -0.5493
      3 O          -6.7487    1.6917   -0.5781 O.3     1  LIG1       -0.4526
      4 O           1.3218    2.0700    0.3238 O.2     1  LIG1       -0.2697
      5 O          -6.0843    2.7712    1.4739 O.3     1  LIG1       -0.4526
      6 O           0.8679   -5.4393    2.4767 O.3     1  LIG1       -0.4951
      7 N           0.0987    0.0744   -0.9828 N.4     1  LIG1        0.2481
      8 N           3.2272    2.1970   -0.9733 N.am    1  LIG1       -0.2971
      9 C          -1.9120   -1.1109   -1.4860 C.3     1  LIG1        0.0574
     10 C          -2.1516    0.3719   -1.7850 C.3     1  LIG1        0.0378
     11 C          -0.4108   -1.3234   -1.2845 C.3     1  LIG1        0.0143
     12 C          -0.7568    0.9780   -1.8446 C.3     1  LIG1       -0.0230
     13 C          -3.1308    1.0130   -0.8143 C.ar    1  LIG1       -0.0347
     14 C          -0.0764   -2.3866   -0.2450 C.ar    1  LIG1        0.0011
     15 C           1.5813    0.2860   -1.2256 C.3     1  LIG1        0.0468
     16 C          -2.1368   -1.8779   -2.7755 C.2     1  LIG1        0.0513
     17 C          -4.4950    0.9861   -1.1737 C.ar    1  LIG1       -0.0125
     18 C           2.0433    1.5944   -0.5622 C.2     1  LIG1        0.2608
     19 C          -2.7567    1.6380    0.3962 C.ar    1  LIG1       -0.0544
     20 C          -0.3161   -3.7320   -0.5875 C.ar    1  LIG1       -0.0498
     21 C           0.4842   -2.1275    1.0133 C.ar    1  LIG1       -0.0498
     22 C          -5.4120    1.6020   -0.3510 C.ar    1  LIG1        0.1665
     23 C          -3.7158    2.2459    1.2190 C.ar    1  LIG1       -0.0159
     24 C          -5.0324    2.2173    0.8141 C.ar    1  LIG1        0.1662
     25 C          -0.0200   -4.7794    0.2898 C.ar    1  LIG1       -0.0195
     26 C           0.7956   -3.1811    1.8843 C.ar    1  LIG1       -0.0195
     27 C           4.0608    1.7021   -2.0836 C.3     1  LIG1        0.0148
     28 C           3.5430    3.5312   -0.4322 C.3     1  LIG1        0.0148
     29 C           0.5306   -4.5061    1.5359 C.ar    1  LIG1        0.1201
     30 C           5.5363    1.5202   -1.7266 C.3     1  LIG1       -0.0374
     31 C           4.4835    3.5339    0.7807 C.3     1  LIG1       -0.0374
     32 C          -7.1704    2.4323    0.5839 C.3     1  LIG1        0.2332
     33 C           6.3261    0.7776   -2.8078 C.3     1  LIG1       -0.0545
     34 C           3.9138    2.9397    2.0696 C.3     1  LIG1       -0.0545
     35 C           6.3970    1.5315   -4.1269 C.3     1  LIG1       -0.0652
     36 C           2.8394    3.8062    2.7090 C.3     1  LIG1       -0.0652
     37 C           0.2175   -6.7015    2.3568 C.3     1  LIG1        0.0788
     38 H          -0.1029    0.3120   -0.0052 H       1  LIG1        0.2045
     39 H          -2.5279   -1.4984   -0.6658 H       1  LIG1        0.0427
     40 H          -2.5951    0.5388   -2.7768 H       1  LIG1        0.0409
     41 H           0.1433   -1.6146   -2.1874 H       1  LIG1        0.0911
     42 H          -0.3533    0.9318   -2.8628 H       1  LIG1        0.0821
     43 H          -0.6809    2.0029   -1.4703 H       1  LIG1        0.0821
     44 H           1.7212    0.2923   -2.3077 H       1  LIG1        0.0913
     45 H           2.1247   -0.5444   -0.7671 H       1  LIG1        0.0913
     46 H          -4.8310    0.5027   -2.0883 H       1  LIG1        0.0658
     47 H          -1.7217    1.6801    0.7216 H       1  LIG1        0.0622
     48 H          -0.7525   -3.9890   -1.5555 H       1  LIG1        0.0623
     49 H           0.6983   -1.1213    1.3578 H       1  LIG1        0.0623
     50 H          -3.4340    2.7339    2.1457 H       1  LIG1        0.0655
     51 H          -0.2294   -5.7922   -0.0400 H       1  LIG1        0.0654
     52 H           1.2362   -2.9674    2.8558 H       1  LIG1        0.0654
     53 H           3.9451    2.4162   -2.9070 H       1  LIG1        0.0464
     54 H           3.6839    0.7434   -2.4413 H       1  LIG1        0.0464
     55 H           2.6115    4.0509   -0.1815 H       1  LIG1        0.0464
     56 H           3.9999    4.1156   -1.2404 H       1  LIG1        0.0464
     57 H           5.6134    0.9516   -0.7917 H       1  LIG1        0.0280
     58 H           6.0055    2.4946   -1.5514 H       1  LIG1        0.0280
     59 H           4.7853    4.5709    0.9766 H       1  LIG1        0.0280
     60 H           5.4034    2.9932    0.5415 H       1  LIG1        0.0280
     61 H          -7.9032    1.8322    1.1352 H       1  LIG1        0.1166
     62 H          -7.6532    3.3590    0.2519 H       1  LIG1        0.1166
     63 H           5.8870   -0.2125   -2.9774 H       1  LIG1        0.0263
     64 H           7.3467    0.6129   -2.4425 H       1  LIG1        0.0263
     65 H           4.7348    2.8359    2.7900 H       1  LIG1        0.0263
     66 H           3.5305    1.9297    1.8937 H       1  LIG1        0.0263
     67 H           5.4105    1.6191   -4.5917 H       1  LIG1        0.0230
     68 H           7.0480    1.0007   -4.8288 H       1  LIG1        0.0230
     69 H           6.8025    2.5379   -3.9828 H       1  LIG1        0.0230
     70 H           3.2333    4.7980    2.9534 H       1  LIG1        0.0230
     71 H           2.4908    3.3449    3.6386 H       1  LIG1        0.0230
     72 H           1.9737    3.9361    2.0553 H       1  LIG1        0.0230
     73 H           0.4497   -7.2834    3.2539 H       1  LIG1        0.0660
     74 H           0.5935   -7.2593    1.4931 H       1  LIG1        0.0660
     75 H          -0.8709   -6.5846    2.3077 H       1  LIG1        0.0660
@<TRIPOS>BOND
     1     1    16   ar
     2     2    16   ar
     3     3    22    1
     4     3    32    1
     5     4    18    2
     6     5    24    1
     7     5    32    1
     8     6    29    1
     9     6    37    1
    10     7    11    1
    11     7    12    1
    12     7    15    1
    13     8    18   am
    14     8    27    1
    15     8    28    1
    16     9    10    1
    17     9    11    1
    18     9    16    1
    19    10    12    1
    20    10    13    1
    21    11    14    1
    22    13    17   ar
    23    13    19   ar
    24    14    20   ar
    25    14    21   ar
    26    15    18    1
    27    17    22   ar
    28    19    23   ar
    29    20    25   ar
    30    21    26   ar
    31    22    24   ar
    32    23    24   ar
    33    25    29   ar
    34    26    29   ar
    35    27    30    1
    36    28    31    1
    37    30    33    1
    38    31    34    1
    39    33    35    1
    40    34    36    1
    41     7    38    1
    42     9    39    1
    43    10    40    1
    44    11    41    1
    45    12    42    1
    46    12    43    1
    47    15    44    1
    48    15    45    1
    49    17    46    1
    50    19    47    1
    51    20    48    1
    52    21    49    1
    53    23    50    1
    54    25    51    1
    55    26    52    1
    56    27    53    1
    57    27    54    1
    58    28    55    1
    59    28    56    1
    60    30    57    1
    61    30    58    1
    62    31    59    1
    63    31    60    1
    64    32    61    1
    65    32    62    1
    66    33    63    1
    67    33    64    1
    68    34    65    1
    69    34    66    1
    70    35    67    1
    71    35    68    1
    72    35    69    1
    73    36    70    1
    74    36    71    1
    75    36    72    1
    76    37    73    1
    77    37    74    1
    78    37    75    1
@<TRIPOS>MOLECULE
159594
 75 78 0 0 0
SMALL
GASTEIGER

@<TRIPOS>ATOM
      1 O          -2.8124   -2.8283   -2.9065 O.co2   1  LIG1       -0.5493
      2 O          -1.3933   -1.3607   -3.9333 O.co2   1  LIG1       -0.5493
      3 O          -3.4994    3.5013    1.7818 O.3     1  LIG1       -0.4526
      4 O           1.0795    2.4475   -0.0184 O.2     1  LIG1       -0.2697
      5 O          -5.7775    2.7113    1.7258 O.3     1  LIG1       -0.4526
      6 O           1.0870   -5.1644    2.4869 O.3     1  LIG1       -0.4951
      7 N           0.0796    0.1416   -1.0502 N.4     1  LIG1        0.2481
      8 N           3.3199    2.0422   -0.3662 N.am    1  LIG1       -0.2971
      9 C          -1.8656   -1.0949   -1.6559 C.3     1  LIG1        0.0574
     10 C          -2.1260    0.3986   -1.9224 C.3     1  LIG1        0.0378
     11 C          -0.3705   -1.2653   -1.4128 C.3     1  LIG1        0.0143
     12 C          -0.7184    0.9905   -2.0168 C.3     1  LIG1       -0.0230
     13 C          -3.0661    0.9933   -0.8774 C.ar    1  LIG1       -0.0347
     14 C           0.0032   -2.2984   -0.3682 C.ar    1  LIG1        0.0011
     15 C           1.5741    0.3665   -1.0909 C.3     1  LIG1        0.0468
     16 C          -2.0497   -1.8368   -2.9641 C.2     1  LIG1        0.0513
     17 C          -2.7047    1.9987    0.0339 C.ar    1  LIG1       -0.0125
     18 C           1.9696    1.7081   -0.4525 C.2     1  LIG1        0.2608
     19 C          -4.4124    0.5363   -0.8864 C.ar    1  LIG1       -0.0544
     20 C           0.7636   -3.4133   -0.7641 C.ar    1  LIG1       -0.0498
     21 C          -0.3789   -2.1980    0.9749 C.ar    1  LIG1       -0.0498
     22 C          -3.6826    2.5093    0.8679 C.ar    1  LIG1        0.1665
     23 C          -5.3768    1.0666   -0.0240 C.ar    1  LIG1       -0.0159
     24 C          -4.9804    2.0603    0.8383 C.ar    1  LIG1        0.1662
     25 C           1.1506   -4.3920    0.1564 C.ar    1  LIG1       -0.0195
     26 C           0.0123   -3.1797    1.8933 C.ar    1  LIG1       -0.0195
     27 C           3.6536    3.3136    0.2956 C.3     1  LIG1        0.0148
     28 C           4.4227    1.1424   -0.7523 C.3     1  LIG1        0.0148
     29 C           0.7758   -4.2794    1.4918 C.ar    1  LIG1        0.1201
     30 C           3.4298    3.3300    1.8135 C.3     1  LIG1       -0.0374
     31 C           5.4261    1.7738   -1.7251 C.3     1  LIG1       -0.0374
     32 C          -4.8421    3.6513    2.2909 C.3     1  LIG1        0.2332
     33 C           4.2577    2.3267    2.6160 C.3     1  LIG1       -0.0545
     34 C           6.4802    0.7814   -2.2236 C.3     1  LIG1       -0.0545
     35 C           5.7558    2.5734    2.5364 C.3     1  LIG1       -0.0652
     36 C           5.9415   -0.1961   -3.2563 C.3     1  LIG1       -0.0652
     37 C           1.7115   -6.3804    2.0887 C.3     1  LIG1        0.0788
     38 H          -0.2458    0.3710   -0.1035 H       1  LIG1        0.2045
     39 H          -2.4927   -1.5236   -0.8663 H       1  LIG1        0.0427
     40 H          -2.6239    0.5842   -2.8844 H       1  LIG1        0.0409
     41 H           0.2120   -1.4968   -2.3142 H       1  LIG1        0.0911
     42 H          -0.2794    0.8469   -3.0110 H       1  LIG1        0.0821
     43 H          -0.6363    2.0440   -1.7462 H       1  LIG1        0.0821
     44 H           1.8931    0.3243   -2.1362 H       1  LIG1        0.0913
     45 H           2.0279   -0.4380   -0.5056 H       1  LIG1        0.0913
     46 H          -1.7076    2.4173    0.1031 H       1  LIG1        0.0658
     47 H          -4.7164   -0.2407   -1.5914 H       1  LIG1        0.0622
     48 H           1.0448   -3.5478   -1.8090 H       1  LIG1        0.0623
     49 H          -1.0052   -1.3804    1.3242 H       1  LIG1        0.0623
     50 H          -6.4026    0.7163   -0.0472 H       1  LIG1        0.0655
     51 H           1.7305   -5.2335   -0.2091 H       1  LIG1        0.0654
     52 H          -0.3008   -3.1008    2.9324 H       1  LIG1        0.0654
     53 H           3.0117    4.0852   -0.1491 H       1  LIG1        0.0464
     54 H           4.6787    3.6082    0.0626 H       1  LIG1        0.0464
     55 H           4.0161    0.2348   -1.1994 H       1  LIG1        0.0464
     56 H           4.9325    0.8309    0.1646 H       1  LIG1        0.0464
     57 H           2.3717    3.1509    2.0349 H       1  LIG1        0.0280
     58 H           3.6475    4.3418    2.1792 H       1  LIG1        0.0280
     59 H           5.9616    2.5875   -1.2242 H       1  LIG1        0.0280
     60 H           4.8983    2.2231   -2.5746 H       1  LIG1        0.0280
     61 H          -5.1889    4.6679    2.0696 H       1  LIG1        0.1166
     62 H          -4.8221    3.5161    3.3781 H       1  LIG1        0.1166
     63 H           4.0297    1.3041    2.2974 H       1  LIG1        0.0263
     64 H           3.9536    2.3963    3.6676 H       1  LIG1        0.0263
     65 H           6.9092    0.2294   -1.3791 H       1  LIG1        0.0263
     66 H           7.3011    1.3462   -2.6820 H       1  LIG1        0.0263
     67 H           6.1362    2.4415    1.5202 H       1  LIG1        0.0230
     68 H           6.2856    1.8671    3.1836 H       1  LIG1        0.0230
     69 H           6.0040    3.5868    2.8670 H       1  LIG1        0.0230
     70 H           5.1684   -0.8446   -2.8355 H       1  LIG1        0.0230
     71 H           6.7501   -0.8358   -3.6246 H       1  LIG1        0.0230
     72 H           5.5170    0.3367   -4.1133 H       1  LIG1        0.0230
     73 H           1.8196   -7.0092    2.9777 H       1  LIG1        0.0660
     74 H           2.7142   -6.1933    1.6901 H       1  LIG1        0.0660
     75 H           1.0956   -6.9280    1.3670 H       1  LIG1        0.0660
@<TRIPOS>BOND
     1     1    16   ar
     2     2    16   ar
     3     3    22    1
     4     3    32    1
     5     4    18    2
     6     5    24    1
     7     5    32    1
     8     6    29    1
     9     6    37    1
    10     7    11    1
    11     7    12    1
    12     7    15    1
    13     8    18   am
    14     8    27    1
    15     8    28    1
    16     9    10    1
    17     9    11    1
    18     9    16    1
    19    10    12    1
    20    10    13    1
    21    11    14    1
    22    13    17   ar
    23    13    19   ar
    24    14    20   ar
    25    14    21   ar
    26    15    18    1
    27    17    22   ar
    28    19    23   ar
    29    20    25   ar
    30    21    26   ar
    31    22    24   ar
    32    23    24   ar
    33    25    29   ar
    34    26    29   ar
    35    27    30    1
    36    28    31    1
    37    30    33    1
    38    31    34    1
    39    33    35    1
    40    34    36    1
    41     7    38    1
    42     9    39    1
    43    10    40    1
    44    11    41    1
    45    12    42    1
    46    12    43    1
    47    15    44    1
    48    15    45    1
    49    17    46    1
    50    19    47    1
    51    20    48    1
    52    21    49    1
    53    23    50    1
    54    25    51    1
    55    26    52    1
    56    27    53    1
    57    27    54    1
    58    28    55    1
    59    28    56    1
    60    30    57    1
    61    30    58    1
    62    31    59    1
    63    31    60    1
    64    32    61    1
    65    32    62    1
    66    33    63    1
    67    33    64    1
    68    34    65    1
    69    34    66    1
    70    35    67    1
    71    35    68    1
    72    35    69    1
    73    36    70    1
    74    36    71    1
    75    36    72    1
    76    37    73    1
    77    37    74    1
    78    37    75    1
@<TRIPOS>MOLECULE
159594
 75 78 0 0 0
SMALL
GASTEIGER

@<TRIPOS>ATOM
      1 O          -1.1210   -1.1561   -3.9896 O.co2   1  LIG1       -0.5493
      2 O          -2.1724   -3.0164   -3.1837 O.co2   1  LIG1       -0.5493
      3 O          -5.5456    3.6565   -0.6464 O.3     1  LIG1       -0.4526
      4 O           1.1042    2.4289    0.0106 O.2     1  LIG1       -0.2697
      5 O          -5.7152    2.8622    1.6244 O.3     1  LIG1       -0.4526
      6 O           0.6918   -5.2574    2.6863 O.3     1  LIG1       -0.4951
      7 N           0.0378    0.1195   -0.9952 N.4     1  LIG1        0.2481
      8 N           3.3276    1.9577   -0.3806 N.am    1  LIG1       -0.2971
      9 C          -1.8353   -1.1918   -1.7518 C.3     1  LIG1        0.0574
     10 C          -2.1595    0.2922   -1.9371 C.3     1  LIG1        0.0378
     11 C          -0.3721   -1.3123   -1.3182 C.3     1  LIG1        0.0143
     12 C          -0.7897    0.9698   -1.9410 C.3     1  LIG1       -0.0230
     13 C          -3.0810    0.9212   -0.8982 C.ar    1  LIG1       -0.0347
     14 C          -0.1316   -2.3284   -0.2070 C.ar    1  LIG1        0.0011
     15 C           1.5299    0.3624   -1.1179 C.3     1  LIG1        0.0468
     16 C          -1.7274   -1.8454   -3.1234 C.2     1  LIG1        0.0513
     17 C          -3.8649    2.0219   -1.3081 C.ar    1  LIG1       -0.0125
     18 C           1.9657    1.6774   -0.4539 C.2     1  LIG1        0.2608
     19 C          -3.1860    0.4714    0.4371 C.ar    1  LIG1       -0.0544
     20 C          -0.2741   -3.6922   -0.5290 C.ar    1  LIG1       -0.0498
     21 C           0.2830   -2.0099    1.0932 C.ar    1  LIG1       -0.0498
     22 C          -4.7168    2.6070   -0.3971 C.ar    1  LIG1        0.1665
     23 C          -4.0568    1.0936    1.3430 C.ar    1  LIG1       -0.0159
     24 C          -4.8119    2.1562    0.8934 C.ar    1  LIG1        0.1662
     25 C          -0.0169   -4.7014    0.4039 C.ar    1  LIG1       -0.0195
     26 C           0.5525   -3.0245    2.0228 C.ar    1  LIG1       -0.0195
     27 C           3.7576    3.2419    0.1906 C.3     1  LIG1        0.0148
     28 C           4.3706    1.1100   -0.9807 C.3     1  LIG1        0.0148
     29 C           0.3969   -4.3709    1.6882 C.ar    1  LIG1        0.1201
     30 C           3.4020    3.4797    1.6643 C.3     1  LIG1       -0.0374
     31 C           5.0128    0.1792    0.0479 C.3     1  LIG1       -0.0374
     32 C          -6.2122    3.7801    0.6266 C.3     1  LIG1        0.2332
     33 C           4.0284    2.4673    2.6200 C.3     1  LIG1       -0.0545
     34 C           6.0668   -0.7557   -0.5473 C.3     1  LIG1       -0.0545
     35 C           3.7073    2.8026    4.0688 C.3     1  LIG1       -0.0652
     36 C           5.4899   -1.7925   -1.4986 C.3     1  LIG1       -0.0652
     37 C           0.2966   -6.6083    2.4669 C.3     1  LIG1        0.0788
     38 H          -0.2690    0.3837   -0.0529 H       1  LIG1        0.2045
     39 H          -2.5521   -1.7330   -1.1256 H       1  LIG1        0.0427
     40 H          -2.6484    0.4616   -2.9063 H       1  LIG1        0.0409
     41 H           0.3184   -1.6070   -2.1222 H       1  LIG1        0.0911
     42 H          -0.3091    0.9395   -2.9238 H       1  LIG1        0.0821
     43 H          -0.7983    1.9985   -1.5698 H       1  LIG1        0.0821
     44 H           1.7755    0.3690   -2.1838 H       1  LIG1        0.0913
     45 H           2.0335   -0.4664   -0.6136 H       1  LIG1        0.0913
     46 H          -3.8284    2.4006   -2.3253 H       1  LIG1        0.0658
     47 H          -2.6156   -0.3846    0.7903 H       1  LIG1        0.0622
     48 H          -0.5893   -3.9957   -1.5299 H       1  LIG1        0.0623
     49 H           0.4215   -0.9862    1.4244 H       1  LIG1        0.0623
     50 H          -4.1521    0.7419    2.3645 H       1  LIG1        0.0655
     51 H          -0.1441   -5.7304    0.0824 H       1  LIG1        0.0654
     52 H           0.8846   -2.7640    3.0257 H       1  LIG1        0.0654
     53 H           3.2921    4.0295   -0.4147 H       1  LIG1        0.0464
     54 H           4.8421    3.3438    0.0667 H       1  LIG1        0.0464
     55 H           5.1251    1.7574   -1.4428 H       1  LIG1        0.0464
     56 H           3.9336    0.5272   -1.7938 H       1  LIG1        0.0464
     57 H           2.3168    3.4887    1.8075 H       1  LIG1        0.0280
     58 H           3.7509    4.4851    1.9333 H       1  LIG1        0.0280
     59 H           4.2412   -0.4109    0.5571 H       1  LIG1        0.0280
     60 H           5.5003    0.7840    0.8202 H       1  LIG1        0.0280
     61 H          -7.2834    3.5959    0.4807 H       1  LIG1        0.1166
     62 H          -6.0795    4.8042    0.9930 H       1  LIG1        0.1166
     63 H           5.1163    2.4557    2.4905 H       1  LIG1        0.0263
     64 H           3.6549    1.4614    2.4008 H       1  LIG1        0.0263
     65 H           6.5661   -1.2813    0.2756 H       1  LIG1        0.0263
     66 H           6.8372   -0.1717   -1.0638 H       1  LIG1        0.0263
     67 H           4.0976    3.7892    4.3388 H       1  LIG1        0.0230
     68 H           4.1592    2.0640    4.7380 H       1  LIG1        0.0230
     69 H           2.6263    2.8018    4.2413 H       1  LIG1        0.0230
     70 H           4.6836   -2.3590   -1.0219 H       1  LIG1        0.0230
     71 H           6.2694   -2.5001   -1.7990 H       1  LIG1        0.0230
     72 H           5.0971   -1.3289   -2.4080 H       1  LIG1        0.0230
     73 H           0.5028   -7.1703    3.3828 H       1  LIG1        0.0660
     74 H           0.8790   -7.0643    1.6594 H       1  LIG1        0.0660
     75 H          -0.7783   -6.6789    2.2675 H       1  LIG1        0.0660
@<TRIPOS>BOND
     1     1    16   ar
     2     2    16   ar
     3     3    22    1
     4     3    32    1
     5     4    18    2
     6     5    24    1
     7     5    32    1
     8     6    29    1
     9     6    37    1
    10     7    11    1
    11     7    12    1
    12     7    15    1
    13     8    18   am
    14     8    27    1
    15     8    28    1
    16     9    10    1
    17     9    11    1
    18     9    16    1
    19    10    12    1
    20    10    13    1
    21    11    14    1
    22    13    17   ar
    23    13    19   ar
    24    14    20   ar
    25    14    21   ar
    26    15    18    1
    27    17    22   ar
    28    19    23   ar
    29    20    25   ar
    30    21    26   ar
    31    22    24   ar
    32    23    24   ar
    33    25    29   ar
    34    26    29   ar
    35    27    30    1
    36    28    31    1
    37    30    33    1
    38    31    34    1
    39    33    35    1
    40    34    36    1
    41     7    38    1
    42     9    39    1
    43    10    40    1
    44    11    41    1
    45    12    42    1
    46    12    43    1
    47    15    44    1
    48    15    45    1
    49    17    46    1
    50    19    47    1
    51    20    48    1
    52    21    49    1
    53    23    50    1
    54    25    51    1
    55    26    52    1
    56    27    53    1
    57    27    54    1
    58    28    55    1
    59    28    56    1
    60    30    57    1
    61    30    58    1
    62    31    59    1
    63    31    60    1
    64    32    61    1
    65    32    62    1
    66    33    63    1
    67    33    64    1
    68    34    65    1
    69    34    66    1
    70    35    67    1
    71    35    68    1
    72    35    69    1
    73    36    70    1
    74    36    71    1
    75    36    72    1
    76    37    73    1
    77    37    74    1
    78    37    75    1
@<TRIPOS>MOLECULE
159594
 75 78 0 0 0
SMALL
GASTEIGER

@<TRIPOS>ATOM
      1 O          -1.4271   -1.3187   -3.8227 O.co2   1  LIG1       -0.5493
      2 O          -2.4922   -3.0054   -2.7051 O.co2   1  LIG1       -0.5493
      3 O          -6.2102    0.4084    0.9364 O.3     1  LIG1       -0.4526
      4 O           2.4378    2.4516   -1.2448 O.2     1  LIG1       -0.2697
      5 O          -5.9214    2.6901    1.6599 O.3     1  LIG1       -0.4526
      6 O           1.1705   -5.4041    2.4188 O.3     1  LIG1       -0.4951
      7 N           0.1911    0.0379   -0.8795 N.4     1  LIG1        0.2481
      8 N           2.2012    1.7579    0.9406 N.am    1  LIG1       -0.2971
      9 C          -1.7928   -1.1156   -1.5217 C.3     1  LIG1        0.0574
     10 C          -2.0218    0.3934   -1.7572 C.3     1  LIG1        0.0378
     11 C          -0.3021   -1.3403   -1.3020 C.3     1  LIG1        0.0143
     12 C          -0.5887    0.9493   -1.8050 C.3     1  LIG1       -0.0230
     13 C          -2.9835    1.0392   -0.7536 C.ar    1  LIG1       -0.0347
     14 C           0.0409   -2.4279   -0.3005 C.ar    1  LIG1        0.0011
     15 C           1.6921    0.2005   -0.9830 C.3     1  LIG1        0.0468
     16 C          -1.9444   -1.8822   -2.8207 C.2     1  LIG1        0.0513
     17 C          -4.1398    0.3362   -0.3503 C.ar    1  LIG1       -0.0125
     18 C           2.1729    1.5521   -0.4408 C.2     1  LIG1        0.2608
     19 C          -2.8560    2.3895   -0.3421 C.ar    1  LIG1       -0.0544
     20 C           0.5858   -3.6301   -0.7830 C.ar    1  LIG1       -0.0498
     21 C          -0.1686   -2.3016    1.0783 C.ar    1  LIG1       -0.0498
     22 C          -5.0582    0.9599    0.4706 C.ar    1  LIG1        0.1665
     23 C          -3.8078    3.0003    0.4885 C.ar    1  LIG1       -0.0159
     24 C          -4.8951    2.2565    0.8819 C.ar    1  LIG1        0.1662
     25 C           0.9695   -4.6540    0.0874 C.ar    1  LIG1       -0.0195
     26 C           0.2300   -3.3233    1.9478 C.ar    1  LIG1       -0.0195
     27 C           2.6230    3.0823    1.4279 C.3     1  LIG1        0.0148
     28 C           2.1905    0.6787    1.9391 C.3     1  LIG1        0.0148
     29 C           0.8119   -4.4966    1.4609 C.ar    1  LIG1        0.1201
     30 C           1.6464    4.2119    1.0821 C.3     1  LIG1       -0.0374
     31 C           3.5712    0.3516    2.5250 C.3     1  LIG1       -0.0374
     32 C          -6.7647    1.5178    1.6716 C.3     1  LIG1        0.2332
     33 C           2.0529    5.5474    1.7128 C.3     1  LIG1       -0.0545
     34 C           4.6031   -0.0717    1.4795 C.3     1  LIG1       -0.0545
     35 C           1.7663    5.6158    3.2054 C.3     1  LIG1       -0.0652
     36 C           5.9459   -0.3803    2.1257 C.3     1  LIG1       -0.0652
     37 C           1.7636   -6.6152    1.9618 C.3     1  LIG1        0.0788
     38 H          -0.1177    0.2255    0.0778 H       1  LIG1        0.2045
     39 H          -2.3979   -1.5576   -0.7255 H       1  LIG1        0.0427
     40 H          -2.4946    0.5940   -2.7283 H       1  LIG1        0.0409
     41 H           0.2717   -1.5489   -2.2161 H       1  LIG1        0.0911
     42 H          -0.1530    0.8475   -2.8060 H       1  LIG1        0.0821
     43 H          -0.4501    1.9735   -1.4592 H       1  LIG1        0.0821
     44 H           1.9649    0.1219   -2.0419 H       1  LIG1        0.0913
     45 H           2.1760   -0.6263   -0.4593 H       1  LIG1        0.0913
     46 H          -4.3562   -0.6713   -0.6985 H       1  LIG1        0.0658
     47 H          -2.0467    3.0226   -0.6945 H       1  LIG1        0.0622
     48 H           0.6937   -3.7942   -1.8566 H       1  LIG1        0.0623
     49 H          -0.6533   -1.4260    1.5007 H       1  LIG1        0.0623
     50 H          -3.7123    4.0395    0.7845 H       1  LIG1        0.0655
     51 H           1.3727   -5.5634   -0.3467 H       1  LIG1        0.0654
     52 H           0.0715   -3.2149    3.0186 H       1  LIG1        0.0654
     53 H           3.6153    3.2941    1.0117 H       1  LIG1        0.0464
     54 H           2.7266    3.0292    2.5160 H       1  LIG1        0.0464
     55 H           1.7578   -0.2291    1.5220 H       1  LIG1        0.0464
     56 H           1.5194    0.9957    2.7465 H       1  LIG1        0.0464
     57 H           0.6298    3.9406    1.3905 H       1  LIG1        0.0280
     58 H           1.6116    4.3549   -0.0031 H       1  LIG1        0.0280
     59 H           3.4492   -0.4550    3.2588 H       1  LIG1        0.0280
     60 H           3.9558    1.2155    3.0797 H       1  LIG1        0.0280
     61 H          -6.9181    1.2079    2.7115 H       1  LIG1        0.1166
     62 H          -7.7361    1.7785    1.2351 H       1  LIG1        0.1166
     63 H           1.4959    6.3523    1.2189 H       1  LIG1        0.0263
     64 H           3.1169    5.7420    1.5330 H       1  LIG1        0.0263
     65 H           4.7482    0.7256    0.7426 H       1  LIG1        0.0263
     66 H           4.2488   -0.9574    0.9409 H       1  LIG1        0.0263
     67 H           0.7045    5.4407    3.4065 H       1  LIG1        0.0230
     68 H           2.0236    6.6071    3.5922 H       1  LIG1        0.0230
     69 H           2.3493    4.8792    3.7651 H       1  LIG1        0.0230
     70 H           6.3350    0.4943    2.6575 H       1  LIG1        0.0230
     71 H           6.6776   -0.6653    1.3634 H       1  LIG1        0.0230
     72 H           5.8583   -1.2051    2.8397 H       1  LIG1        0.0230
     73 H           2.0115   -7.2191    2.8397 H       1  LIG1        0.0660
     74 H           2.6957   -6.4193    1.4206 H       1  LIG1        0.0660
     75 H           1.0631   -7.1906    1.3474 H       1  LIG1        0.0660
@<TRIPOS>BOND
     1     1    16   ar
     2     2    16   ar
     3     3    22    1
     4     3    32    1
     5     4    18    2
     6     5    24    1
     7     5    32    1
     8     6    29    1
     9     6    37    1
    10     7    11    1
    11     7    12    1
    12     7    15    1
    13     8    18   am
    14     8    27    1
    15     8    28    1
    16     9    10    1
    17     9    11    1
    18     9    16    1
    19    10    12    1
    20    10    13    1
    21    11    14    1
    22    13    17   ar
    23    13    19   ar
    24    14    20   ar
    25    14    21   ar
    26    15    18    1
    27    17    22   ar
    28    19    23   ar
    29    20    25   ar
    30    21    26   ar
    31    22    24   ar
    32    23    24   ar
    33    25    29   ar
    34    26    29   ar
    35    27    30    1
    36    28    31    1
    37    30    33    1
    38    31    34    1
    39    33    35    1
    40    34    36    1
    41     7    38    1
    42     9    39    1
    43    10    40    1
    44    11    41    1
    45    12    42    1
    46    12    43    1
    47    15    44    1
    48    15    45    1
    49    17    46    1
    50    19    47    1
    51    20    48    1
    52    21    49    1
    53    23    50    1
    54    25    51    1
    55    26    52    1
    56    27    53    1
    57    27    54    1
    58    28    55    1
    59    28    56    1
    60    30    57    1
    61    30    58    1
    62    31    59    1
    63    31    60    1
    64    32    61    1
    65    32    62    1
    66    33    63    1
    67    33    64    1
    68    34    65    1
    69    34    66    1
    70    35    67    1
    71    35    68    1
    72    35    69    1
    73    36    70    1
    74    36    71    1
    75    36    72    1
    76    37    73    1
    77    37    74    1
    78    37    75    1
@<TRIPOS>MOLECULE
159594
 75 78 0 0 0
SMALL
GASTEIGER

@<TRIPOS>ATOM
      1 O          -2.5518   -2.9626   -2.8505 O.co2   1  LIG1       -0.5493
      2 O          -1.3558   -1.2970   -3.8552 O.co2   1  LIG1       -0.5493
      3 O          -6.2872    0.3917    0.9044 O.3     1  LIG1       -0.4526
      4 O           1.1748    2.3835    0.0715 O.2     1  LIG1       -0.2697
      5 O          -5.9243    2.6283    1.7290 O.3     1  LIG1       -0.4526
      6 O           0.9499   -5.4118    2.4791 O.3     1  LIG1       -0.4951
      7 N           0.1106    0.1031   -0.9640 N.4     1  LIG1        0.2481
      8 N           3.3841    2.0096   -0.4842 N.am    1  LIG1       -0.2971
      9 C          -1.8383   -1.1358   -1.5699 C.3     1  LIG1        0.0574
     10 C          -2.1175    0.3632   -1.8088 C.3     1  LIG1        0.0378
     11 C          -0.3456   -1.3093   -1.2866 C.3     1  LIG1        0.0143
     12 C          -0.7020    0.9401   -1.9315 C.3     1  LIG1       -0.0230
     13 C          -3.0427    0.9956   -0.7632 C.ar    1  LIG1       -0.0347
     14 C          -0.0333   -2.3690   -0.2395 C.ar    1  LIG1        0.0011
     15 C           1.6057    0.3248   -1.0729 C.3     1  LIG1        0.0468
     16 C          -1.9493   -1.8635   -2.8953 C.2     1  LIG1        0.0513
     17 C          -4.2189    0.3098   -0.3877 C.ar    1  LIG1       -0.0125
     18 C           2.0355    1.6603   -0.4405 C.2     1  LIG1        0.2608
     19 C          -2.8623    2.3137   -0.2750 C.ar    1  LIG1       -0.0544
     20 C          -0.1458   -3.7181   -0.6281 C.ar    1  LIG1       -0.0498
     21 C           0.3859   -2.1019    1.0698 C.ar    1  LIG1       -0.0498
     22 C          -5.1169    0.9248    0.4627 C.ar    1  LIG1        0.1665
     23 C          -3.7957    2.9171    0.5811 C.ar    1  LIG1       -0.0159
     24 C          -4.9112    2.1954    0.9334 C.ar    1  LIG1        0.1662
     25 C           0.1627   -4.7645    0.2461 C.ar    1  LIG1       -0.0195
     26 C           0.7096   -3.1537    1.9389 C.ar    1  LIG1       -0.0195
     27 C           3.7727    3.3557   -0.0310 C.3     1  LIG1        0.0148
     28 C           4.4551    1.0728   -0.8539 C.3     1  LIG1        0.0148
     29 C           0.5999   -4.4865    1.5351 C.ar    1  LIG1        0.1201
     30 C           4.4187    4.2193   -1.1212 C.3     1  LIG1       -0.0374
     31 C           4.8825    0.1256    0.2755 C.3     1  LIG1       -0.0374
     32 C          -6.8010    1.4819    1.6960 C.3     1  LIG1        0.2332
     33 C           3.5104    4.4423   -2.3305 C.3     1  LIG1       -0.0545
     34 C           5.6154    0.8237    1.4218 C.3     1  LIG1       -0.0545
     35 C           4.1942    5.3085   -3.3779 C.3     1  LIG1       -0.0652
     36 C           6.2384   -0.1777    2.3825 C.3     1  LIG1       -0.0652
     37 C           0.7231   -6.7777    2.1449 C.3     1  LIG1        0.0788
     38 H          -0.2020    0.3698   -0.0224 H       1  LIG1        0.2045
     39 H          -2.4652   -1.6056   -0.8062 H       1  LIG1        0.0427
     40 H          -2.6396    0.5426   -2.7589 H       1  LIG1        0.0409
     41 H           0.2596   -1.5836   -2.1629 H       1  LIG1        0.0911
     42 H          -0.2797    0.7838   -2.9304 H       1  LIG1        0.0821
     43 H          -0.5851    1.9916   -1.6749 H       1  LIG1        0.0821
     44 H           1.8675    0.3021   -2.1348 H       1  LIG1        0.0913
     45 H           2.0918   -0.4945   -0.5411 H       1  LIG1        0.0913
     46 H          -4.4591   -0.6767   -0.7774 H       1  LIG1        0.0658
     47 H          -2.0179    2.9290   -0.5719 H       1  LIG1        0.0622
     48 H          -0.4901   -3.9781   -1.6319 H       1  LIG1        0.0623
     49 H           0.4774   -1.0906    1.4518 H       1  LIG1        0.0623
     50 H          -3.6589    3.9334    0.9344 H       1  LIG1        0.0655
     51 H           0.0460   -5.7791   -0.1219 H       1  LIG1        0.0654
     52 H           1.0450   -2.9341    2.9504 H       1  LIG1        0.0654
     53 H           4.4719    3.2496    0.8022 H       1  LIG1        0.0464
     54 H           2.9029    3.8910    0.3646 H       1  LIG1        0.0464
     55 H           5.3208    1.6282   -1.2258 H       1  LIG1        0.0464
     56 H           4.1008    0.4660   -1.6934 H       1  LIG1        0.0464
     57 H           5.3640    3.7742   -1.4504 H       1  LIG1        0.0280
     58 H           4.6761    5.1907   -0.6803 H       1  LIG1        0.0280
     59 H           5.5475   -0.6311   -0.1596 H       1  LIG1        0.0280
     60 H           4.0155   -0.4093    0.6784 H       1  LIG1        0.0280
     61 H          -6.9545    1.1299    2.7223 H       1  LIG1        0.1166
     62 H          -7.7681    1.7906    1.2820 H       1  LIG1        0.1166
     63 H           2.5791    4.9247   -2.0126 H       1  LIG1        0.0263
     64 H           3.2426    3.4835   -2.7879 H       1  LIG1        0.0263
     65 H           4.9157    1.4498    1.9852 H       1  LIG1        0.0263
     66 H           6.4023    1.4759    1.0260 H       1  LIG1        0.0263
     67 H           4.4553    6.2895   -2.9678 H       1  LIG1        0.0230
     68 H           3.5317    5.4629   -4.2350 H       1  LIG1        0.0230
     69 H           5.1119    4.8331   -3.7399 H       1  LIG1        0.0230
     70 H           5.4763   -0.8339    2.8143 H       1  LIG1        0.0230
     71 H           6.7401    0.3469    3.2019 H       1  LIG1        0.0230
     72 H           6.9817   -0.7994    1.8734 H       1  LIG1        0.0230
     73 H           1.0091   -7.3861    3.0082 H       1  LIG1        0.0660
     74 H           1.3477   -7.0872    1.3001 H       1  LIG1        0.0660
     75 H          -0.3369   -6.9647    1.9421 H       1  LIG1        0.0660
@<TRIPOS>BOND
     1     1    16   ar
     2     2    16   ar
     3     3    22    1
     4     3    32    1
     5     4    18    2
     6     5    24    1
     7     5    32    1
     8     6    29    1
     9     6    37    1
    10     7    11    1
    11     7    12    1
    12     7    15    1
    13     8    18   am
    14     8    27    1
    15     8    28    1
    16     9    10    1
    17     9    11    1
    18     9    16    1
    19    10    12    1
    20    10    13    1
    21    11    14    1
    22    13    17   ar
    23    13    19   ar
    24    14    20   ar
    25    14    21   ar
    26    15    18    1
    27    17    22   ar
    28    19    23   ar
    29    20    25   ar
    30    21    26   ar
    31    22    24   ar
    32    23    24   ar
    33    25    29   ar
    34    26    29   ar
    35    27    30    1
    36    28    31    1
    37    30    33    1
    38    31    34    1
    39    33    35    1
    40    34    36    1
    41     7    38    1
    42     9    39    1
    43    10    40    1
    44    11    41    1
    45    12    42    1
    46    12    43    1
    47    15    44    1
    48    15    45    1
    49    17    46    1
    50    19    47    1
    51    20    48    1
    52    21    49    1
    53    23    50    1
    54    25    51    1
    55    26    52    1
    56    27    53    1
    57    27    54    1
    58    28    55    1
    59    28    56    1
    60    30    57    1
    61    30    58    1
    62    31    59    1
    63    31    60    1
    64    32    61    1
    65    32    62    1
    66    33    63    1
    67    33    64    1
    68    34    65    1
    69    34    66    1
    70    35    67    1
    71    35    68    1
    72    35    69    1
    73    36    70    1
    74    36    71    1
    75    36    72    1
    76    37    73    1
    77    37    74    1
    78    37    75    1
