@<TRIPOS>MOLECULE
9912992
 55 58 0 0 0
SMALL
GASTEIGER

@<TRIPOS>ATOM
      1 S          -0.5846    0.4770    3.5828 S.O2    1  LIG1        0.0908
      2 O          -2.2520    0.6723    0.0761 O.3     1  LIG1       -0.4435
      3 O          -1.9529   -1.4082   -1.5638 O.3     1  LIG1       -0.4771
      4 O          -1.5139   -0.6098    3.3436 O.2     1  LIG1       -0.1484
      5 O           0.5874    0.3130    4.4185 O.2     1  LIG1       -0.1484
      6 O          -4.3922    2.1980    1.3044 O.3     1  LIG1       -0.4914
      7 N          -0.0892    1.1169    2.0808 N.pl3   1  LIG1       -0.1950
      8 N           1.0711   -0.5969    1.0680 N.ar    1  LIG1       -0.2073
      9 N           0.1665   -1.9173   -0.6896 N.ar    1  LIG1       -0.1899
     10 N          -2.8418    1.7646    4.2186 N.ar    1  LIG1       -0.2351
     11 N           4.7538   -3.9265    0.0040 N.ar    1  LIG1       -0.2632
     12 C          -0.0471    0.1475    1.0405 C.ar    1  LIG1        0.1882
     13 C          -1.0860   -0.0379    0.1475 C.ar    1  LIG1        0.2307
     14 C          -1.4924    1.8934    4.2233 C.ar    1  LIG1        0.1969
     15 C          -0.9278   -1.1350   -0.6753 C.ar    1  LIG1        0.2638
     16 C           1.1390   -1.6070    0.1878 C.ar    1  LIG1        0.1659
     17 C          -0.8084    3.0637    4.5197 C.ar    1  LIG1       -0.0160
     18 C           2.3725   -2.4090    0.1434 C.ar    1  LIG1        0.0222
     19 C          -2.2331    2.0476    0.0777 C.ar    1  LIG1        0.1702
     20 C          -2.9625    4.1071    4.8269 C.ar    1  LIG1       -0.0322
     21 C          -1.5660    4.1895    4.8277 C.ar    1  LIG1       -0.0541
     22 C          -3.5421    2.8740    4.5350 C.ar    1  LIG1        0.0327
     23 C          -3.2765    2.7330    0.7190 C.ar    1  LIG1        0.1621
     24 C          -1.1947    2.7767   -0.5251 C.ar    1  LIG1       -0.0157
     25 C          -3.8196    5.2932    5.1400 C.3     1  LIG1       -0.0383
     26 C           2.4068   -3.6657   -0.4808 C.ar    1  LIG1       -0.0329
     27 C           3.5708   -1.9442    0.7053 C.ar    1  LIG1       -0.0329
     28 C          -3.1964    4.1239    0.8557 C.ar    1  LIG1       -0.0163
     29 C          -1.1371    4.1650   -0.3926 C.ar    1  LIG1       -0.0581
     30 C          -2.1287    4.8376    0.3139 C.ar    1  LIG1       -0.0581
     31 C           3.5967   -4.3747   -0.5219 C.ar    1  LIG1        0.0282
     32 C           4.7141   -2.7220    0.6083 C.ar    1  LIG1        0.0282
     33 C          -1.8512   -2.6961   -2.1618 C.3     1  LIG1        0.0805
     34 C          -4.8592    0.9498    0.8056 C.3     1  LIG1        0.0790
     35 H          -0.6574    1.9296    1.8575 H       1  LIG1        0.1754
     36 H           0.2755    3.1072    4.4829 H       1  LIG1        0.0653
     37 H          -1.0665    5.1293    5.0511 H       1  LIG1        0.0622
     38 H          -4.6227    2.7468    4.5279 H       1  LIG1        0.0833
     39 H          -0.4082    2.2763   -1.0848 H       1  LIG1        0.0655
     40 H          -3.2295    6.2152    5.1713 H       1  LIG1        0.0278
     41 H          -4.3049    5.1632    6.1121 H       1  LIG1        0.0278
     42 H          -4.5869    5.4215    4.3690 H       1  LIG1        0.0278
     43 H           1.5150   -4.0933   -0.9292 H       1  LIG1        0.0640
     44 H           3.6194   -0.9818    1.2068 H       1  LIG1        0.0640
     45 H          -3.9838    4.6549    1.3866 H       1  LIG1        0.0655
     46 H          -0.3157    4.7219   -0.8381 H       1  LIG1        0.0619
     47 H          -2.0854    5.9179    0.4278 H       1  LIG1        0.0619
     48 H           3.6493   -5.3511   -0.9950 H       1  LIG1        0.0830
     49 H           5.6578   -2.3818    1.0256 H       1  LIG1        0.0830
     50 H          -2.7482   -2.8535   -2.7684 H       1  LIG1        0.0660
     51 H          -1.8201   -3.4858   -1.4026 H       1  LIG1        0.0660
     52 H          -0.9832   -2.7557   -2.8269 H       1  LIG1        0.0660
     53 H          -5.9115    0.8527    1.0903 H       1  LIG1        0.0660
     54 H          -4.3178    0.1215    1.2717 H       1  LIG1        0.0660
     55 H          -4.8120    0.8989   -0.2878 H       1  LIG1        0.0660
@<TRIPOS>BOND
     1     1     4    2
     2     1     5    2
     3     1     7    1
     4     1    14    1
     5     2    13    1
     6     2    19    1
     7     3    15    1
     8     3    33    1
     9     6    23    1
    10     6    34    1
    11     7    12    1
    12     8    12   ar
    13     8    16   ar
    14     9    15   ar
    15     9    16   ar
    16    10    14   ar
    17    10    22   ar
    18    11    31   ar
    19    11    32   ar
    20    12    13   ar
    21    13    15   ar
    22    14    17   ar
    23    16    18    1
    24    17    21   ar
    25    18    26   ar
    26    18    27   ar
    27    19    23   ar
    28    19    24   ar
    29    20    21   ar
    30    20    22   ar
    31    20    25    1
    32    23    28   ar
    33    24    29   ar
    34    26    31   ar
    35    27    32   ar
    36    28    30   ar
    37    29    30   ar
    38     7    35    1
    39    17    36    1
    40    21    37    1
    41    22    38    1
    42    24    39    1
    43    25    40    1
    44    25    41    1
    45    25    42    1
    46    26    43    1
    47    27    44    1
    48    28    45    1
    49    29    46    1
    50    30    47    1
    51    31    48    1
    52    32    49    1
    53    33    50    1
    54    33    51    1
    55    33    52    1
    56    34    53    1
    57    34    54    1
    58    34    55    1
@<TRIPOS>MOLECULE
9912992
 55 58 0 0 0
SMALL
GASTEIGER

@<TRIPOS>ATOM
      1 S          -0.5597    0.4756    3.5707 S.O2    1  LIG1        0.0908
      2 O          -2.2161    0.7033    0.0435 O.3     1  LIG1       -0.4435
      3 O          -1.8593   -1.2978   -1.6790 O.3     1  LIG1       -0.4771
      4 O          -1.4855   -0.6131    3.3291 O.2     1  LIG1       -0.1484
      5 O           0.6139    0.3153    4.4021 O.2     1  LIG1       -0.1484
      6 O          -4.3735    2.1983    1.2865 O.3     1  LIG1       -0.4914
      7 N          -0.0769    1.1283    2.0742 N.pl3   1  LIG1       -0.1950
      8 N           1.0967   -0.5743    1.0570 N.ar    1  LIG1       -0.2073
      9 N           0.2359   -1.8422   -0.7628 N.ar    1  LIG1       -0.1899
     10 N          -2.8239    1.7498    4.2095 N.ar    1  LIG1       -0.2351
     11 N           4.7736   -3.9200    0.0188 N.ar    1  LIG1       -0.2632
     12 C          -0.0217    0.1682    1.0260 C.ar    1  LIG1        0.1882
     13 C          -1.0449    0.0017    0.1088 C.ar    1  LIG1        0.2307
     14 C          -1.4760    1.8838    4.2232 C.ar    1  LIG1        0.1969
     15 C          -0.8593   -1.0593   -0.7531 C.ar    1  LIG1        0.2638
     16 C           1.1824   -1.5634    0.1514 C.ar    1  LIG1        0.1659
     17 C          -0.7966    3.0551    4.5292 C.ar    1  LIG1       -0.0160
     18 C           2.4087   -2.3765    0.1242 C.ar    1  LIG1        0.0222
     19 C          -2.2080    2.0788    0.0655 C.ar    1  LIG1        0.1702
     20 C          -2.9565    4.0894    4.8256 C.ar    1  LIG1       -0.0322
     21 C          -1.5606    4.1766    4.8366 C.ar    1  LIG1       -0.0541
     22 C          -3.5305    2.8554    4.5268 C.ar    1  LIG1        0.0327
     23 C          -3.2599    2.7478    0.7111 C.ar    1  LIG1        0.1621
     24 C          -1.1727    2.8223   -0.5228 C.ar    1  LIG1       -0.0157
     25 C          -3.8204    5.2708    5.1366 C.3     1  LIG1       -0.0383
     26 C           2.4357   -3.6359   -0.4950 C.ar    1  LIG1       -0.0329
     27 C           3.6035   -1.9222    0.6994 C.ar    1  LIG1       -0.0329
     28 C          -3.1922    4.1379    0.8628 C.ar    1  LIG1       -0.0163
     29 C          -1.1268    4.2092   -0.3738 C.ar    1  LIG1       -0.0581
     30 C          -2.1279    4.8662    0.3345 C.ar    1  LIG1       -0.0581
     31 C           3.6183   -4.3582   -0.5190 C.ar    1  LIG1        0.0282
     32 C           4.7396   -2.7124    0.6187 C.ar    1  LIG1        0.0282
     33 C          -1.6340   -2.4553   -2.4773 C.3     1  LIG1        0.0805
     34 C          -4.8232    0.9456    0.7851 C.3     1  LIG1        0.0790
     35 H          -0.6547    1.9362    1.8561 H       1  LIG1        0.1754
     36 H           0.2866    3.1025    4.4983 H       1  LIG1        0.0653
     37 H          -1.0657    5.1180    5.0665 H       1  LIG1        0.0622
     38 H          -4.6103    2.7238    4.5121 H       1  LIG1        0.0833
     39 H          -0.3786    2.3353   -1.0828 H       1  LIG1        0.0655
     40 H          -3.2346    6.1962    5.1702 H       1  LIG1        0.0278
     41 H          -4.3081    5.1382    6.1075 H       1  LIG1        0.0278
     42 H          -4.5857    5.3962    4.3635 H       1  LIG1        0.0278
     43 H           1.5442   -4.0558   -0.9515 H       1  LIG1        0.0640
     44 H           3.6559   -0.9590    1.1982 H       1  LIG1        0.0640
     45 H          -3.9859    4.6562    1.3948 H       1  LIG1        0.0655
     46 H          -0.3065    4.7785   -0.8084 H       1  LIG1        0.0619
     47 H          -2.0942    5.9462    0.4592 H       1  LIG1        0.0619
     48 H           3.6658   -5.3372   -0.9866 H       1  LIG1        0.0830
     49 H           5.6823   -2.3812    1.0467 H       1  LIG1        0.0830
     50 H          -2.4922   -2.5713   -3.1461 H       1  LIG1        0.0660
     51 H          -1.5685   -3.3577   -1.8594 H       1  LIG1        0.0660
     52 H          -0.7400   -2.3383   -3.0997 H       1  LIG1        0.0660
     53 H          -5.8746    0.8332    1.0700 H       1  LIG1        0.0660
     54 H          -4.2704    0.1231    1.2494 H       1  LIG1        0.0660
     55 H          -4.7761    0.8978   -0.3085 H       1  LIG1        0.0660
@<TRIPOS>BOND
     1     1     4    2
     2     1     5    2
     3     1     7    1
     4     1    14    1
     5     2    13    1
     6     2    19    1
     7     3    15    1
     8     3    33    1
     9     6    23    1
    10     6    34    1
    11     7    12    1
    12     8    12   ar
    13     8    16   ar
    14     9    15   ar
    15     9    16   ar
    16    10    14   ar
    17    10    22   ar
    18    11    31   ar
    19    11    32   ar
    20    12    13   ar
    21    13    15   ar
    22    14    17   ar
    23    16    18    1
    24    17    21   ar
    25    18    26   ar
    26    18    27   ar
    27    19    23   ar
    28    19    24   ar
    29    20    21   ar
    30    20    22   ar
    31    20    25    1
    32    23    28   ar
    33    24    29   ar
    34    26    31   ar
    35    27    32   ar
    36    28    30   ar
    37    29    30   ar
    38     7    35    1
    39    17    36    1
    40    21    37    1
    41    22    38    1
    42    24    39    1
    43    25    40    1
    44    25    41    1
    45    25    42    1
    46    26    43    1
    47    27    44    1
    48    28    45    1
    49    29    46    1
    50    30    47    1
    51    31    48    1
    52    32    49    1
    53    33    50    1
    54    33    51    1
    55    33    52    1
    56    34    53    1
    57    34    54    1
    58    34    55    1
@<TRIPOS>MOLECULE
9912992
 55 58 0 0 0
SMALL
GASTEIGER

@<TRIPOS>ATOM
      1 S          -0.5915    0.5450    3.5698 S.O2    1  LIG1        0.0908
      2 O          -2.1805    0.7357    0.0850 O.3     1  LIG1       -0.4435
      3 O          -1.7514   -1.2892   -1.8043 O.3     1  LIG1       -0.4771
      4 O          -1.8392    1.2559    3.7308 O.2     1  LIG1       -0.1484
      5 O          -0.5346   -0.8990    3.6930 O.2     1  LIG1       -0.1484
      6 O          -4.3147    2.0083    1.5892 O.3     1  LIG1       -0.4914
      7 N           0.0960    1.0248    2.1045 N.pl3   1  LIG1       -0.1950
      8 N           1.1127   -0.6805    1.0157 N.ar    1  LIG1       -0.2073
      9 N           0.1903   -1.8637   -0.8159 N.ar    1  LIG1       -0.1899
     10 N           0.8550    2.5756    4.4745 N.ar    1  LIG1       -0.2351
     11 N           4.7555   -3.9700   -0.2028 N.ar    1  LIG1       -0.2632
     12 C           0.0109    0.0896    1.0428 C.ar    1  LIG1        0.1882
     13 C          -1.0411   -0.0202    0.1466 C.ar    1  LIG1        0.2307
     14 C           0.5963    1.2560    4.7060 C.ar    1  LIG1        0.1969
     15 C          -0.8903   -1.0592   -0.7626 C.ar    1  LIG1        0.2638
     16 C           1.1607   -1.6363    0.0787 C.ar    1  LIG1        0.1659
     17 C           1.2558    0.4640    5.6287 C.ar    1  LIG1       -0.0160
     18 C           2.3866   -2.4426   -0.0121 C.ar    1  LIG1        0.0222
     19 C          -2.1558    2.0808    0.3579 C.ar    1  LIG1        0.1702
     20 C           2.5611    2.4189    6.1855 C.ar    1  LIG1       -0.0322
     21 C           2.2572    1.0670    6.3830 C.ar    1  LIG1       -0.0541
     22 C           1.8275    3.1221    5.2320 C.ar    1  LIG1        0.0327
     23 C          -3.1886    2.6359    1.1282 C.ar    1  LIG1        0.1621
     24 C          -1.1111    2.8996   -0.1005 C.ar    1  LIG1       -0.0157
     25 C           3.6465    3.1009    6.9571 C.3     1  LIG1       -0.0383
     26 C           2.3696   -3.7562   -0.5007 C.ar    1  LIG1       -0.0329
     27 C           3.6288   -1.9189    0.3763 C.ar    1  LIG1       -0.0329
     28 C          -3.0694    3.9580    1.5680 C.ar    1  LIG1       -0.0163
     29 C          -1.0075    4.2175    0.3456 C.ar    1  LIG1       -0.0581
     30 C          -1.9754    4.7394    1.1983 C.ar    1  LIG1       -0.0581
     31 C           3.5572   -4.4691   -0.5695 C.ar    1  LIG1        0.0282
     32 C           4.7648   -2.7038    0.2592 C.ar    1  LIG1        0.0282
     33 C          -3.1152   -1.4409   -1.4331 C.3     1  LIG1        0.0805
     34 C          -4.8532    0.9696    0.7849 C.3     1  LIG1        0.0790
     35 H          -0.2643    1.9542    1.9092 H       1  LIG1        0.1754
     36 H           1.0221   -0.5892    5.7402 H       1  LIG1        0.0653
     37 H           2.8088    0.4747    7.1092 H       1  LIG1        0.0622
     38 H           2.0195    4.1753    5.0401 H       1  LIG1        0.0833
     39 H          -0.3362    2.5049   -0.7533 H       1  LIG1        0.0655
     40 H           4.1534    2.4053    7.6336 H       1  LIG1        0.0278
     41 H           3.2299    3.9152    7.5581 H       1  LIG1        0.0278
     42 H           4.3979    3.5066    6.2716 H       1  LIG1        0.0278
     43 H           1.4421   -4.2238   -0.8176 H       1  LIG1        0.0640
     44 H           3.7140   -0.9043    0.7544 H       1  LIG1        0.0640
     45 H          -3.8357    4.3754    2.2179 H       1  LIG1        0.0655
     46 H          -0.1599    4.8303    0.0481 H       1  LIG1        0.0619
     47 H          -1.8883    5.7563    1.5726 H       1  LIG1        0.0619
     48 H           3.5747   -5.4928   -0.9328 H       1  LIG1        0.0830
     49 H           5.7411   -2.3191    0.5403 H       1  LIG1        0.0830
     50 H          -3.5754   -2.1568   -2.1210 H       1  LIG1        0.0660
     51 H          -3.6362   -0.4885   -1.5647 H       1  LIG1        0.0660
     52 H          -3.2458   -1.8196   -0.4137 H       1  LIG1        0.0660
     53 H          -5.9097    0.8547    1.0474 H       1  LIG1        0.0660
     54 H          -4.3598    0.0198    1.0086 H       1  LIG1        0.0660
     55 H          -4.8062    1.2059   -0.2835 H       1  LIG1        0.0660
@<TRIPOS>BOND
     1     1     4    2
     2     1     5    2
     3     1     7    1
     4     1    14    1
     5     2    13    1
     6     2    19    1
     7     3    15    1
     8     3    33    1
     9     6    23    1
    10     6    34    1
    11     7    12    1
    12     8    12   ar
    13     8    16   ar
    14     9    15   ar
    15     9    16   ar
    16    10    14   ar
    17    10    22   ar
    18    11    31   ar
    19    11    32   ar
    20    12    13   ar
    21    13    15   ar
    22    14    17   ar
    23    16    18    1
    24    17    21   ar
    25    18    26   ar
    26    18    27   ar
    27    19    23   ar
    28    19    24   ar
    29    20    21   ar
    30    20    22   ar
    31    20    25    1
    32    23    28   ar
    33    24    29   ar
    34    26    31   ar
    35    27    32   ar
    36    28    30   ar
    37    29    30   ar
    38     7    35    1
    39    17    36    1
    40    21    37    1
    41    22    38    1
    42    24    39    1
    43    25    40    1
    44    25    41    1
    45    25    42    1
    46    26    43    1
    47    27    44    1
    48    28    45    1
    49    29    46    1
    50    30    47    1
    51    31    48    1
    52    32    49    1
    53    33    50    1
    54    33    51    1
    55    33    52    1
    56    34    53    1
    57    34    54    1
    58    34    55    1
@<TRIPOS>MOLECULE
9912992
 55 58 0 0 0
SMALL
GASTEIGER

@<TRIPOS>ATOM
      1 S          -0.7618    0.5603    3.5570 S.O2    1  LIG1        0.0908
      2 O          -2.1285    0.7299    0.2408 O.3     1  LIG1       -0.4435
      3 O          -1.9500   -1.3002   -1.4638 O.3     1  LIG1       -0.4771
      4 O          -0.0156    0.9714    4.7308 O.2     1  LIG1       -0.1484
      5 O          -2.0996    1.0595    3.3412 O.2     1  LIG1       -0.1484
      6 O          -4.4026    2.0516    1.3720 O.3     1  LIG1       -0.4914
      7 N           0.2018    0.9724    2.2211 N.pl3   1  LIG1       -0.1950
      8 N           1.2303   -0.6044    0.9974 N.ar    1  LIG1       -0.2073
      9 N           0.2109   -1.8614   -0.7331 N.ar    1  LIG1       -0.1899
     10 N           0.2519   -1.8771    3.9521 N.ar    1  LIG1       -0.2351
     11 N           4.7461   -4.0545   -0.1430 N.ar    1  LIG1       -0.2632
     12 C           0.1132    0.1359    1.0818 C.ar    1  LIG1        0.1882
     13 C          -0.9676    0.0151    0.2344 C.ar    1  LIG1        0.2307
     14 C          -0.8674   -1.2303    3.5388 C.ar    1  LIG1        0.1969
     15 C          -0.8642   -1.0514   -0.6407 C.ar    1  LIG1        0.2638
     16 C           1.2370   -1.5873    0.0849 C.ar    1  LIG1        0.1659
     17 C          -2.0302   -1.8476    3.0993 C.ar    1  LIG1       -0.0160
     18 C           2.4376   -2.4329    0.0026 C.ar    1  LIG1        0.0222
     19 C          -2.1250    2.0978    0.3906 C.ar    1  LIG1        0.1702
     20 C          -0.9273   -3.9499    3.5110 C.ar    1  LIG1       -0.0322
     21 C          -2.0508   -3.2364    3.0823 C.ar    1  LIG1       -0.0541
     22 C           0.1820   -3.2254    3.9456 C.ar    1  LIG1        0.0327
     23 C          -3.2537    2.6921    0.9810 C.ar    1  LIG1        0.1621
     24 C          -1.0625    2.9112   -0.0272 C.ar    1  LIG1       -0.0157
     25 C          -0.9478   -5.4448    3.5766 C.3     1  LIG1       -0.0383
     26 C           3.6711   -1.9994    0.5119 C.ar    1  LIG1       -0.0329
     27 C           2.4005   -3.7067   -0.5825 C.ar    1  LIG1       -0.0329
     28 C          -3.2335    4.0564    1.2880 C.ar    1  LIG1       -0.0163
     29 C          -1.0678    4.2796    0.2558 C.ar    1  LIG1       -0.0581
     30 C          -2.1416    4.8472    0.9356 C.ar    1  LIG1       -0.0581
     31 C           4.7773   -2.8280    0.4145 C.ar    1  LIG1        0.0282
     32 C           3.5583   -4.4675   -0.6280 C.ar    1  LIG1        0.0282
     33 C          -1.8826   -2.5567   -2.1314 C.3     1  LIG1        0.0805
     34 C          -4.8576    1.0123    0.5142 C.3     1  LIG1        0.0790
     35 H           1.1657    1.0367    2.5461 H       1  LIG1        0.1754
     36 H          -2.8914   -1.2719    2.7749 H       1  LIG1        0.0653
     37 H          -2.9448   -3.7569    2.7465 H       1  LIG1        0.0622
     38 H           1.0717   -3.7283    4.3176 H       1  LIG1        0.0833
     39 H          -0.2080    2.4985   -0.5539 H       1  LIG1        0.0655
     40 H          -1.5683   -5.8607    2.7760 H       1  LIG1        0.0278
     41 H          -1.3511   -5.7702    4.5406 H       1  LIG1        0.0278
     42 H           0.0593   -5.8568    3.4566 H       1  LIG1        0.0278
     43 H           3.7760   -1.0232    0.9766 H       1  LIG1        0.0640
     44 H           1.4796   -4.1101   -0.9925 H       1  LIG1        0.0640
     45 H          -4.0778    4.5003    1.8094 H       1  LIG1        0.0655
     46 H          -0.2243    4.8995   -0.0370 H       1  LIG1        0.0619
     47 H          -2.1354    5.9043    1.1874 H       1  LIG1        0.0619
     48 H           5.7458   -2.5141    0.7942 H       1  LIG1        0.0830
     49 H           3.5588   -5.4606   -1.0686 H       1  LIG1        0.0830
     50 H          -2.8092   -2.6836   -2.6993 H       1  LIG1        0.0660
     51 H          -1.8176   -3.3824   -1.4136 H       1  LIG1        0.0660
     52 H          -1.0489   -2.5869   -2.8411 H       1  LIG1        0.0660
     53 H          -5.9391    0.9175    0.6534 H       1  LIG1        0.0660
     54 H          -4.4099    0.0558    0.7998 H       1  LIG1        0.0660
     55 H          -4.6794    1.2338   -0.5440 H       1  LIG1        0.0660
@<TRIPOS>BOND
     1     1     4    2
     2     1     5    2
     3     1     7    1
     4     1    14    1
     5     2    13    1
     6     2    19    1
     7     3    15    1
     8     3    33    1
     9     6    23    1
    10     6    34    1
    11     7    12    1
    12     8    12   ar
    13     8    16   ar
    14     9    15   ar
    15     9    16   ar
    16    10    14   ar
    17    10    22   ar
    18    11    31   ar
    19    11    32   ar
    20    12    13   ar
    21    13    15   ar
    22    14    17   ar
    23    16    18    1
    24    17    21   ar
    25    18    26   ar
    26    18    27   ar
    27    19    23   ar
    28    19    24   ar
    29    20    21   ar
    30    20    22   ar
    31    20    25    1
    32    23    28   ar
    33    24    29   ar
    34    26    31   ar
    35    27    32   ar
    36    28    30   ar
    37    29    30   ar
    38     7    35    1
    39    17    36    1
    40    21    37    1
    41    22    38    1
    42    24    39    1
    43    25    40    1
    44    25    41    1
    45    25    42    1
    46    26    43    1
    47    27    44    1
    48    28    45    1
    49    29    46    1
    50    30    47    1
    51    31    48    1
    52    32    49    1
    53    33    50    1
    54    33    51    1
    55    33    52    1
    56    34    53    1
    57    34    54    1
    58    34    55    1
@<TRIPOS>MOLECULE
9912992
 55 58 0 0 0
SMALL
GASTEIGER

@<TRIPOS>ATOM
      1 S          -0.5532    0.4281    3.7107 S.O2    1  LIG1        0.0908
      2 O          -2.1360    0.7311    0.2078 O.3     1  LIG1       -0.4435
      3 O          -1.9790   -1.3625   -1.4244 O.3     1  LIG1       -0.4771
      4 O          -1.9981    0.5018    3.5842 O.2     1  LIG1       -0.1484
      5 O           0.1111   -0.7951    4.1161 O.2     1  LIG1       -0.1484
      6 O          -0.0494    2.3764   -0.8618 O.3     1  LIG1       -0.4914
      7 N           0.1016    0.9942    2.2481 N.pl3   1  LIG1       -0.1950
      8 N           1.1217   -0.7374    1.1641 N.ar    1  LIG1       -0.2073
      9 N           0.1277   -1.9864   -0.5936 N.ar    1  LIG1       -0.1899
     10 N          -0.9061    2.6324    5.1889 N.ar    1  LIG1       -0.2351
     11 N           4.7442   -4.0072   -0.1909 N.ar    1  LIG1       -0.2632
     12 C           0.0323    0.0485    1.1850 C.ar    1  LIG1        0.1882
     13 C          -1.0250   -0.0599    0.3004 C.ar    1  LIG1        0.2307
     14 C           0.0337    1.7425    4.7843 C.ar    1  LIG1        0.1969
     15 C          -0.9290   -1.1486   -0.5469 C.ar    1  LIG1        0.2638
     16 C           1.1336   -1.7229    0.2541 C.ar    1  LIG1        0.1659
     17 C           1.3989    1.8684    5.0037 C.ar    1  LIG1       -0.0160
     18 C           2.3630   -2.5203    0.1252 C.ar    1  LIG1        0.0222
     19 C          -2.0485    2.0911    0.4062 C.ar    1  LIG1        0.1702
     20 C           0.9028    3.9293    6.1520 C.ar    1  LIG1       -0.0322
     21 C           1.8347    2.9889    5.7023 C.ar    1  LIG1       -0.0541
     22 C          -0.4454    3.6945    5.8834 C.ar    1  LIG1        0.0327
     23 C          -1.0271    2.9280   -0.0774 C.ar    1  LIG1        0.1621
     24 C          -3.0788    2.6250    1.1878 C.ar    1  LIG1       -0.0157
     25 C           1.3268    5.1466    6.9128 C.3     1  LIG1       -0.0383
     26 C           3.6002   -2.0232    0.5612 C.ar    1  LIG1       -0.0329
     27 C           2.3569   -3.7915   -0.4655 C.ar    1  LIG1       -0.0329
     28 C          -1.0436    4.2871    0.2592 C.ar    1  LIG1       -0.0163
     29 C          -3.0760    3.9744    1.5309 C.ar    1  LIG1       -0.0581
     30 C          -2.0565    4.8030    1.0712 C.ar    1  LIG1       -0.0581
     31 C           4.7427   -2.7862    0.3801 C.ar    1  LIG1        0.0282
     32 C           3.5499   -4.4850   -0.5958 C.ar    1  LIG1        0.0282
     33 C          -1.9313   -2.6297   -2.0709 C.3     1  LIG1        0.0805
     34 C           1.2659    2.8837   -0.6345 C.3     1  LIG1        0.0790
     35 H          -0.4156    1.8430    2.0387 H       1  LIG1        0.1754
     36 H           2.0998    1.1360    4.6155 H       1  LIG1        0.0653
     37 H           2.8974    3.1286    5.8812 H       1  LIG1        0.0622
     38 H          -1.2141    4.3846    6.2243 H       1  LIG1        0.0833
     39 H          -3.8674    1.9744    1.5613 H       1  LIG1        0.0655
     40 H           2.4166    5.2553    6.9164 H       1  LIG1        0.0278
     41 H           0.9868    5.0809    7.9507 H       1  LIG1        0.0278
     42 H           0.9079    6.0473    6.4520 H       1  LIG1        0.0278
     43 H           3.6783   -1.0438    1.0240 H       1  LIG1        0.0640
     44 H           1.4340   -4.2401   -0.8210 H       1  LIG1        0.0640
     45 H          -0.2811    4.9678   -0.1081 H       1  LIG1        0.0655
     46 H          -3.8684    4.3741    2.1595 H       1  LIG1        0.0619
     47 H          -2.0563    5.8579    1.3377 H       1  LIG1        0.0619
     48 H           5.7149   -2.4195    0.6948 H       1  LIG1        0.0830
     49 H           3.5757   -5.4734   -1.0462 H       1  LIG1        0.0830
     50 H          -2.8316   -2.7249   -2.6860 H       1  LIG1        0.0660
     51 H          -1.9396   -3.4470   -1.3407 H       1  LIG1        0.0660
     52 H          -1.0643   -2.7061   -2.7359 H       1  LIG1        0.0660
     53 H           1.9781    2.1617   -1.0430 H       1  LIG1        0.0660
     54 H           1.4818    2.9937    0.4350 H       1  LIG1        0.0660
     55 H           1.4104    3.8337   -1.1575 H       1  LIG1        0.0660
@<TRIPOS>BOND
     1     1     4    2
     2     1     5    2
     3     1     7    1
     4     1    14    1
     5     2    13    1
     6     2    19    1
     7     3    15    1
     8     3    33    1
     9     6    23    1
    10     6    34    1
    11     7    12    1
    12     8    12   ar
    13     8    16   ar
    14     9    15   ar
    15     9    16   ar
    16    10    14   ar
    17    10    22   ar
    18    11    31   ar
    19    11    32   ar
    20    12    13   ar
    21    13    15   ar
    22    14    17   ar
    23    16    18    1
    24    17    21   ar
    25    18    26   ar
    26    18    27   ar
    27    19    23   ar
    28    19    24   ar
    29    20    21   ar
    30    20    22   ar
    31    20    25    1
    32    23    28   ar
    33    24    29   ar
    34    26    31   ar
    35    27    32   ar
    36    28    30   ar
    37    29    30   ar
    38     7    35    1
    39    17    36    1
    40    21    37    1
    41    22    38    1
    42    24    39    1
    43    25    40    1
    44    25    41    1
    45    25    42    1
    46    26    43    1
    47    27    44    1
    48    28    45    1
    49    29    46    1
    50    30    47    1
    51    31    48    1
    52    32    49    1
    53    33    50    1
    54    33    51    1
    55    33    52    1
    56    34    53    1
    57    34    54    1
    58    34    55    1
@<TRIPOS>MOLECULE
9912992
 55 58 0 0 0
SMALL
GASTEIGER

@<TRIPOS>ATOM
      1 S          -0.7780    0.5936    3.3077 S.O2    1  LIG1        0.0908
      2 O          -2.3069    0.4741    0.1776 O.3     1  LIG1       -0.4435
      3 O          -1.7724   -1.3614   -1.9784 O.3     1  LIG1       -0.4771
      4 O          -0.2397    1.5319    4.2772 O.2     1  LIG1       -0.1484
      5 O          -2.2118    0.4618    3.1542 O.2     1  LIG1       -0.1484
      6 O          -3.0147   -2.1847    0.9148 O.3     1  LIG1       -0.4914
      7 N          -0.0680    1.0495    1.8421 N.pl3   1  LIG1       -0.1950
      8 N           1.1543   -0.4970    0.7347 N.ar    1  LIG1       -0.2073
      9 N           0.3297   -1.7966   -1.0719 N.ar    1  LIG1       -0.1899
     10 N          -0.4425   -2.0168    2.8557 N.ar    1  LIG1       -0.2351
     11 N           4.8121   -3.9169   -0.0393 N.ar    1  LIG1       -0.2632
     12 C          -0.0575    0.0825    0.8078 C.ar    1  LIG1        0.1882
     13 C          -1.1416   -0.2158    0.0066 C.ar    1  LIG1        0.2307
     14 C          -0.0918   -1.0192    3.7102 C.ar    1  LIG1        0.1969
     15 C          -0.8518   -1.1453   -0.9731 C.ar    1  LIG1        0.2638
     16 C           1.2756   -1.4736   -0.1769 C.ar    1  LIG1        0.1659
     17 C           0.7458   -1.1792    4.8020 C.ar    1  LIG1       -0.0160
     18 C           2.5030   -2.2888   -0.1500 C.ar    1  LIG1        0.0222
     19 C          -3.5178   -0.1118   -0.1316 C.ar    1  LIG1        0.1702
     20 C           0.9385   -3.5031    4.1716 C.ar    1  LIG1       -0.0322
     21 C           1.2667   -2.4510    5.0318 C.ar    1  LIG1       -0.0541
     22 C           0.0868   -3.2294    3.1069 C.ar    1  LIG1        0.0327
     23 C          -3.9107   -1.4176    0.2189 C.ar    1  LIG1        0.1621
     24 C          -4.4118    0.7336   -0.8014 C.ar    1  LIG1       -0.0157
     25 C           1.4673   -4.8878    4.3696 C.3     1  LIG1       -0.0383
     26 C           3.5155   -2.0633    0.7952 C.ar    1  LIG1       -0.0329
     27 C           2.6938   -3.3540   -1.0432 C.ar    1  LIG1       -0.0329
     28 C          -5.1882   -1.8597   -0.1521 C.ar    1  LIG1       -0.0163
     29 C          -5.6767    0.2788   -1.1678 C.ar    1  LIG1       -0.0581
     30 C          -6.0614   -1.0191   -0.8482 C.ar    1  LIG1       -0.0581
     31 C           4.6299   -2.8872    0.8108 C.ar    1  LIG1        0.0282
     32 C           3.8414   -4.1253   -0.9503 C.ar    1  LIG1        0.0282
     33 C          -1.6522   -2.6464   -2.5749 C.3     1  LIG1        0.0805
     34 C          -3.3062   -3.5682    1.0493 C.3     1  LIG1        0.0790
     35 H           0.8661    1.4125    2.0189 H       1  LIG1        0.1754
     36 H           0.9914   -0.3507    5.4572 H       1  LIG1        0.0653
     37 H           1.9257   -2.6161    5.8812 H       1  LIG1        0.0622
     38 H          -0.1976   -4.0056    2.4022 H       1  LIG1        0.0833
     39 H          -4.1129    1.7505   -1.0417 H       1  LIG1        0.0655
     40 H           2.1223   -4.9468    5.2443 H       1  LIG1        0.0278
     41 H           2.0451   -5.1998    3.4928 H       1  LIG1        0.0278
     42 H           0.6393   -5.5888    4.5204 H       1  LIG1        0.0278
     43 H           3.4376   -1.2609    1.5225 H       1  LIG1        0.0640
     44 H           1.9529   -3.5910   -1.8010 H       1  LIG1        0.0640
     45 H          -5.5421   -2.8540    0.0977 H       1  LIG1        0.0655
     46 H          -6.3603    0.9383   -1.6948 H       1  LIG1        0.0619
     47 H          -7.0491   -1.3771   -1.1281 H       1  LIG1        0.0619
     48 H           5.4263   -2.7361    1.5340 H       1  LIG1        0.0830
     49 H           4.0098   -4.9592   -1.6262 H       1  LIG1        0.0830
     50 H          -2.5386   -2.8101   -3.1954 H       1  LIG1        0.0660
     51 H          -1.6248   -3.4410   -1.8202 H       1  LIG1        0.0660
     52 H          -0.7726   -2.6958   -3.2250 H       1  LIG1        0.0660
     53 H          -2.4342   -4.0568    1.4915 H       1  LIG1        0.0660
     54 H          -3.4803   -4.0376    0.0748 H       1  LIG1        0.0660
     55 H          -4.1535   -3.7275    1.7235 H       1  LIG1        0.0660
@<TRIPOS>BOND
     1     1     4    2
     2     1     5    2
     3     1     7    1
     4     1    14    1
     5     2    13    1
     6     2    19    1
     7     3    15    1
     8     3    33    1
     9     6    23    1
    10     6    34    1
    11     7    12    1
    12     8    12   ar
    13     8    16   ar
    14     9    15   ar
    15     9    16   ar
    16    10    14   ar
    17    10    22   ar
    18    11    31   ar
    19    11    32   ar
    20    12    13   ar
    21    13    15   ar
    22    14    17   ar
    23    16    18    1
    24    17    21   ar
    25    18    26   ar
    26    18    27   ar
    27    19    23   ar
    28    19    24   ar
    29    20    21   ar
    30    20    22   ar
    31    20    25    1
    32    23    28   ar
    33    24    29   ar
    34    26    31   ar
    35    27    32   ar
    36    28    30   ar
    37    29    30   ar
    38     7    35    1
    39    17    36    1
    40    21    37    1
    41    22    38    1
    42    24    39    1
    43    25    40    1
    44    25    41    1
    45    25    42    1
    46    26    43    1
    47    27    44    1
    48    28    45    1
    49    29    46    1
    50    30    47    1
    51    31    48    1
    52    32    49    1
    53    33    50    1
    54    33    51    1
    55    33    52    1
    56    34    53    1
    57    34    54    1
    58    34    55    1
@<TRIPOS>MOLECULE
9912992
 55 58 0 0 0
SMALL
GASTEIGER

@<TRIPOS>ATOM
      1 S           0.4454    2.4794    1.5365 S.O2    1  LIG1        0.0908
      2 O          -2.2899    0.4257    0.1974 O.3     1  LIG1       -0.4435
      3 O          -1.7235   -1.3594   -1.9899 O.3     1  LIG1       -0.4771
      4 O          -0.2999    3.4265    2.3426 O.2     1  LIG1       -0.1484
      5 O           1.8899    2.4159    1.6375 O.2     1  LIG1       -0.1484
      6 O          -2.9475   -2.1531    1.1232 O.3     1  LIG1       -0.4914
      7 N          -0.2246    0.9658    1.9141 N.pl3   1  LIG1       -0.1950
      8 N           1.0980   -0.6504    0.8898 N.ar    1  LIG1       -0.2073
      9 N           0.3557   -1.8316   -1.0398 N.ar    1  LIG1       -0.1899
     10 N           0.8006    2.1799   -1.0937 N.ar    1  LIG1       -0.2351
     11 N           4.8758   -3.8979   -0.0762 N.ar    1  LIG1       -0.2632
     12 C          -0.0919   -0.0391    0.9186 C.ar    1  LIG1        0.1882
     13 C          -1.1260   -0.2766    0.0330 C.ar    1  LIG1        0.2307
     14 C          -0.0066    2.7798   -0.1800 C.ar    1  LIG1        0.1969
     15 C          -0.8186   -1.1748   -0.9645 C.ar    1  LIG1        0.2638
     16 C           1.2702   -1.5512   -0.0906 C.ar    1  LIG1        0.1659
     17 C          -1.1515    3.4976   -0.4896 C.ar    1  LIG1       -0.0160
     18 C           2.5178   -2.3359   -0.1004 C.ar    1  LIG1        0.0222
     19 C          -3.4896   -0.1888   -0.0902 C.ar    1  LIG1        0.1702
     20 C          -0.7106    2.9752   -2.8071 C.ar    1  LIG1       -0.0322
     21 C          -1.5067    3.5876   -1.8332 C.ar    1  LIG1       -0.0541
     22 C           0.4359    2.3070   -2.3854 C.ar    1  LIG1        0.0327
     23 C          -3.8460   -1.4805    0.3369 C.ar    1  LIG1        0.1621
     24 C          -4.3913    0.5920   -0.8207 C.ar    1  LIG1       -0.0157
     25 C          -1.0510    3.0451   -4.2628 C.3     1  LIG1       -0.0383
     26 C           3.5604   -2.0732    0.7998 C.ar    1  LIG1       -0.0329
     27 C           2.7045   -3.4010   -0.9961 C.ar    1  LIG1       -0.0329
     28 C          -5.0969   -1.9885   -0.0285 C.ar    1  LIG1       -0.0163
     29 C          -5.6342    0.0755   -1.1761 C.ar    1  LIG1       -0.0581
     30 C          -5.9815   -1.2165   -0.7888 C.ar    1  LIG1       -0.0581
     31 C           4.6972   -2.8665    0.7749 C.ar    1  LIG1        0.0282
     32 C           3.8759   -4.1397   -0.9456 C.ar    1  LIG1        0.0282
     33 C          -1.6158   -2.6435   -2.5925 C.3     1  LIG1        0.0805
     34 C          -3.0793   -3.5695    1.1760 C.3     1  LIG1        0.0790
     35 H          -1.1773    1.0958    2.2514 H       1  LIG1        0.1754
     36 H          -1.7672    3.9467    0.2820 H       1  LIG1        0.0653
     37 H          -2.4084    4.1262   -2.1158 H       1  LIG1        0.0622
     38 H           1.1068    1.8318   -3.0975 H       1  LIG1        0.0833
     39 H          -4.1170    1.5986   -1.1242 H       1  LIG1        0.0655
     40 H          -2.0586    3.4439   -4.4189 H       1  LIG1        0.0278
     41 H          -1.0212    2.0446   -4.7077 H       1  LIG1        0.0278
     42 H          -0.3402    3.6916   -4.7867 H       1  LIG1        0.0278
     43 H           3.4907   -1.2602    1.5182 H       1  LIG1        0.0640
     44 H           1.9425   -3.6631   -1.7237 H       1  LIG1        0.0640
     45 H          -5.4213   -2.9777    0.2780 H       1  LIG1        0.0655
     46 H          -6.3301    0.6789   -1.7530 H       1  LIG1        0.0619
     47 H          -6.9515   -1.6218   -1.0673 H       1  LIG1        0.0619
     48 H           5.5170   -2.6868    1.4647 H       1  LIG1        0.0830
     49 H           4.0403   -4.9728   -1.6229 H       1  LIG1        0.0830
     50 H          -2.4992   -2.7898   -3.2215 H       1  LIG1        0.0660
     51 H          -1.6090   -3.4419   -1.8416 H       1  LIG1        0.0660
     52 H          -0.7303   -2.7023   -3.2330 H       1  LIG1        0.0660
     53 H          -2.1680   -3.9728    1.6282 H       1  LIG1        0.0660
     54 H          -3.1721   -4.0054    0.1751 H       1  LIG1        0.0660
     55 H          -3.9240   -3.8557    1.8099 H       1  LIG1        0.0660
@<TRIPOS>BOND
     1     1     4    2
     2     1     5    2
     3     1     7    1
     4     1    14    1
     5     2    13    1
     6     2    19    1
     7     3    15    1
     8     3    33    1
     9     6    23    1
    10     6    34    1
    11     7    12    1
    12     8    12   ar
    13     8    16   ar
    14     9    15   ar
    15     9    16   ar
    16    10    14   ar
    17    10    22   ar
    18    11    31   ar
    19    11    32   ar
    20    12    13   ar
    21    13    15   ar
    22    14    17   ar
    23    16    18    1
    24    17    21   ar
    25    18    26   ar
    26    18    27   ar
    27    19    23   ar
    28    19    24   ar
    29    20    21   ar
    30    20    22   ar
    31    20    25    1
    32    23    28   ar
    33    24    29   ar
    34    26    31   ar
    35    27    32   ar
    36    28    30   ar
    37    29    30   ar
    38     7    35    1
    39    17    36    1
    40    21    37    1
    41    22    38    1
    42    24    39    1
    43    25    40    1
    44    25    41    1
    45    25    42    1
    46    26    43    1
    47    27    44    1
    48    28    45    1
    49    29    46    1
    50    30    47    1
    51    31    48    1
    52    32    49    1
    53    33    50    1
    54    33    51    1
    55    33    52    1
    56    34    53    1
    57    34    54    1
    58    34    55    1
@<TRIPOS>MOLECULE
9912992
 55 58 0 0 0
SMALL
GASTEIGER

@<TRIPOS>ATOM
      1 S           0.3860    2.4988    1.5180 S.O2    1  LIG1        0.0908
      2 O          -2.3404    0.5829    0.0212 O.3     1  LIG1       -0.4435
      3 O          -1.8307   -1.3338   -2.0218 O.3     1  LIG1       -0.4771
      4 O           0.8815    3.0245    2.7791 O.2     1  LIG1       -0.1484
      5 O           1.2682    2.4068    0.3734 O.2     1  LIG1       -0.1484
      6 O          -4.2650    1.6851   -1.4633 O.3     1  LIG1       -0.4914
      7 N          -0.2354    0.9697    1.9096 N.pl3   1  LIG1       -0.1950
      8 N           0.9532   -0.6903    0.9101 N.ar    1  LIG1       -0.2073
      9 N           0.2136   -1.8666   -1.0181 N.ar    1  LIG1       -0.1899
     10 N          -1.3288    3.5433   -0.2258 N.ar    1  LIG1       -0.2351
     11 N           4.7690   -3.8586   -0.0455 N.ar    1  LIG1       -0.2632
     12 C          -0.1831    0.0210    0.8597 C.ar    1  LIG1        0.1882
     13 C          -1.1900   -0.1526   -0.0658 C.ar    1  LIG1        0.2307
     14 C          -1.0680    3.4497    1.1020 C.ar    1  LIG1        0.1969
     15 C          -0.9147   -1.1235   -1.0102 C.ar    1  LIG1        0.2638
     16 C           1.1168   -1.6025   -0.0597 C.ar    1  LIG1        0.1659
     17 C          -1.8037    4.0704    2.1006 C.ar    1  LIG1       -0.0160
     18 C           2.3668   -2.3751   -0.0601 C.ar    1  LIG1        0.0222
     19 C          -3.5450   -0.0899   -0.0828 C.ar    1  LIG1        0.1702
     20 C          -3.2196    4.9438    0.3550 C.ar    1  LIG1       -0.0322
     21 C          -2.9066    4.8228    1.7127 C.ar    1  LIG1       -0.0541
     22 C          -2.4077    4.2792   -0.5618 C.ar    1  LIG1        0.0327
     23 C          -4.5589    0.4863   -0.8677 C.ar    1  LIG1        0.1621
     24 C          -3.7779   -1.2904    0.6045 C.ar    1  LIG1       -0.0157
     25 C          -4.4251    5.7070   -0.0940 C.3     1  LIG1       -0.0383
     26 C           3.5397   -1.8611    0.5124 C.ar    1  LIG1       -0.0329
     27 C           2.4387   -3.6528   -0.6324 C.ar    1  LIG1       -0.0329
     28 C          -5.7738   -0.1933   -1.0087 C.ar    1  LIG1       -0.0163
     29 C          -4.9934   -1.9557    0.4545 C.ar    1  LIG1       -0.0581
     30 C          -5.9853   -1.4125   -0.3577 C.ar    1  LIG1       -0.0581
     31 C           4.6960   -2.6241    0.4920 C.ar    1  LIG1        0.0282
     32 C           3.6391   -4.3446   -0.5974 C.ar    1  LIG1        0.0282
     33 C          -1.7062   -2.6082   -2.6417 C.3     1  LIG1        0.0805
     34 C          -5.3205    2.3495   -2.1436 C.3     1  LIG1        0.0790
     35 H           0.2602    0.6434    2.7371 H       1  LIG1        0.1754
     36 H          -1.5334    3.9728    3.1469 H       1  LIG1        0.0653
     37 H          -3.5167    5.3138    2.4674 H       1  LIG1        0.0622
     38 H          -2.6122    4.3169   -1.6288 H       1  LIG1        0.0833
     39 H          -3.0179   -1.7206    1.2496 H       1  LIG1        0.0655
     40 H          -4.6237    6.5508    0.5753 H       1  LIG1        0.0278
     41 H          -5.3011    5.0511   -0.1046 H       1  LIG1        0.0278
     42 H          -4.2782    6.1166   -1.0987 H       1  LIG1        0.0278
     43 H           3.5588   -0.8699    0.9575 H       1  LIG1        0.0640
     44 H           1.5691   -4.1096   -1.0948 H       1  LIG1        0.0640
     45 H          -6.5765    0.1940   -1.6273 H       1  LIG1        0.0655
     46 H          -5.1659   -2.8981    0.9679 H       1  LIG1        0.0619
     47 H          -6.9307   -1.9351   -0.4829 H       1  LIG1        0.0619
     48 H           5.6212   -2.2473    0.9190 H       1  LIG1        0.0830
     49 H           3.7237   -5.3393   -1.0255 H       1  LIG1        0.0830
     50 H          -2.5541   -2.7325   -3.3221 H       1  LIG1        0.0660
     51 H          -1.7539   -3.4161   -1.9023 H       1  LIG1        0.0660
     52 H          -0.7879   -2.6733   -3.2344 H       1  LIG1        0.0660
     53 H          -4.9426    3.3178   -2.4856 H       1  LIG1        0.0660
     54 H          -6.1653    2.5435   -1.4740 H       1  LIG1        0.0660
     55 H          -5.6351    1.7861   -3.0277 H       1  LIG1        0.0660
@<TRIPOS>BOND
     1     1     4    2
     2     1     5    2
     3     1     7    1
     4     1    14    1
     5     2    13    1
     6     2    19    1
     7     3    15    1
     8     3    33    1
     9     6    23    1
    10     6    34    1
    11     7    12    1
    12     8    12   ar
    13     8    16   ar
    14     9    15   ar
    15     9    16   ar
    16    10    14   ar
    17    10    22   ar
    18    11    31   ar
    19    11    32   ar
    20    12    13   ar
    21    13    15   ar
    22    14    17   ar
    23    16    18    1
    24    17    21   ar
    25    18    26   ar
    26    18    27   ar
    27    19    23   ar
    28    19    24   ar
    29    20    21   ar
    30    20    22   ar
    31    20    25    1
    32    23    28   ar
    33    24    29   ar
    34    26    31   ar
    35    27    32   ar
    36    28    30   ar
    37    29    30   ar
    38     7    35    1
    39    17    36    1
    40    21    37    1
    41    22    38    1
    42    24    39    1
    43    25    40    1
    44    25    41    1
    45    25    42    1
    46    26    43    1
    47    27    44    1
    48    28    45    1
    49    29    46    1
    50    30    47    1
    51    31    48    1
    52    32    49    1
    53    33    50    1
    54    33    51    1
    55    33    52    1
    56    34    53    1
    57    34    54    1
    58    34    55    1
@<TRIPOS>MOLECULE
9912992
 55 58 0 0 0
SMALL
GASTEIGER

@<TRIPOS>ATOM
      1 S          -0.3745    0.4196    3.7462 S.O2    1  LIG1        0.0908
      2 O          -2.1512    0.7990    0.2450 O.3     1  LIG1       -0.4435
      3 O          -1.9329   -1.1871   -1.5193 O.3     1  LIG1       -0.4771
      4 O           0.7750    0.5429    4.6253 O.2     1  LIG1       -0.1484
      5 O          -1.6109    1.0973    4.0902 O.2     1  LIG1       -0.1484
      6 O          -0.1784    2.4662   -0.9791 O.3     1  LIG1       -0.4914
      7 N           0.0781    1.0631    2.2456 N.pl3   1  LIG1       -0.1950
      8 N           1.1506   -0.6161    1.1074 N.ar    1  LIG1       -0.2073
      9 N           0.1889   -1.7995   -0.7146 N.ar    1  LIG1       -0.1899
     10 N          -1.9762   -1.6162    3.1135 N.ar    1  LIG1       -0.2351
     11 N           4.7013   -4.0080   -0.1417 N.ar    1  LIG1       -0.2632
     12 C           0.0561    0.1647    1.1401 C.ar    1  LIG1        0.1882
     13 C          -1.0035    0.0580    0.2581 C.ar    1  LIG1        0.2307
     14 C          -0.7149   -1.3245    3.5278 C.ar    1  LIG1        0.1969
     15 C          -0.8805   -0.9811   -0.6435 C.ar    1  LIG1        0.2638
     16 C           1.1811   -1.5644    0.1567 C.ar    1  LIG1        0.1659
     17 C           0.2613   -2.2634    3.8238 C.ar    1  LIG1       -0.0160
     18 C           2.3837   -2.4064    0.0640 C.ar    1  LIG1        0.0222
     19 C          -2.0952    2.1659    0.4024 C.ar    1  LIG1        0.1702
     20 C          -1.3660   -3.9570    3.2776 C.ar    1  LIG1       -0.0322
     21 C          -0.0755   -3.6045    3.6853 C.ar    1  LIG1       -0.0541
     22 C          -2.2725   -2.9303    3.0185 C.ar    1  LIG1        0.0327
     23 C          -1.1275    3.0170   -0.1589 C.ar    1  LIG1        0.1621
     24 C          -3.1057    2.6909    1.2159 C.ar    1  LIG1       -0.0157
     25 C          -1.7834   -5.3922    3.2021 C.3     1  LIG1       -0.0383
     26 C           3.6185   -1.9738    0.5688 C.ar    1  LIG1       -0.0329
     27 C           2.3491   -3.6692   -0.5464 C.ar    1  LIG1       -0.0329
     28 C          -1.1839    4.3870    0.1224 C.ar    1  LIG1       -0.0163
     29 C          -3.1420    4.0530    1.5024 C.ar    1  LIG1       -0.0581
     30 C          -2.1803    4.8994    0.9581 C.ar    1  LIG1       -0.0581
     31 C           4.7298   -2.7921    0.4400 C.ar    1  LIG1        0.0282
     32 C           3.5113   -4.4205   -0.6215 C.ar    1  LIG1        0.0282
     33 C          -1.7310   -2.2729   -2.4169 C.3     1  LIG1        0.0805
     34 C           1.1100    3.0754   -0.9164 C.3     1  LIG1        0.0790
     35 H          -0.5494    1.8514    2.1092 H       1  LIG1        0.1754
     36 H           1.2537   -1.9643    4.1453 H       1  LIG1        0.0653
     37 H           0.6647   -4.3693    3.9091 H       1  LIG1        0.0622
     38 H          -3.2987   -3.1461    2.7294 H       1  LIG1        0.0833
     39 H          -3.8515    2.0283    1.6510 H       1  LIG1        0.0655
     40 H          -0.9326   -6.0339    2.9500 H       1  LIG1        0.0278
     41 H          -2.5433   -5.5383    2.4278 H       1  LIG1        0.0278
     42 H          -2.1924   -5.7135    4.1653 H       1  LIG1        0.0278
     43 H           3.7210   -1.0031    1.0458 H       1  LIG1        0.0640
     44 H           1.4268   -4.0683   -0.9581 H       1  LIG1        0.0640
     45 H          -0.4697    5.0826   -0.3076 H       1  LIG1        0.0655
     46 H          -3.9190    4.4505    2.1509 H       1  LIG1        0.0619
     47 H          -2.2109    5.9643    1.1774 H       1  LIG1        0.0619
     48 H           5.7017   -2.4773    0.8098 H       1  LIG1        0.0830
     49 H           3.5140   -5.4030   -1.0851 H       1  LIG1        0.0830
     50 H          -2.6151   -2.3452   -3.0578 H       1  LIG1        0.0660
     51 H          -1.6340   -3.2211   -1.8767 H       1  LIG1        0.0660
     52 H          -0.8641   -2.0982   -3.0636 H       1  LIG1        0.0660
     53 H           1.8299    2.3788   -1.3568 H       1  LIG1        0.0660
     54 H           1.4203    3.2640    0.1178 H       1  LIG1        0.0660
     55 H           1.1322    3.9969   -1.5059 H       1  LIG1        0.0660
@<TRIPOS>BOND
     1     1     4    2
     2     1     5    2
     3     1     7    1
     4     1    14    1
     5     2    13    1
     6     2    19    1
     7     3    15    1
     8     3    33    1
     9     6    23    1
    10     6    34    1
    11     7    12    1
    12     8    12   ar
    13     8    16   ar
    14     9    15   ar
    15     9    16   ar
    16    10    14   ar
    17    10    22   ar
    18    11    31   ar
    19    11    32   ar
    20    12    13   ar
    21    13    15   ar
    22    14    17   ar
    23    16    18    1
    24    17    21   ar
    25    18    26   ar
    26    18    27   ar
    27    19    23   ar
    28    19    24   ar
    29    20    21   ar
    30    20    22   ar
    31    20    25    1
    32    23    28   ar
    33    24    29   ar
    34    26    31   ar
    35    27    32   ar
    36    28    30   ar
    37    29    30   ar
    38     7    35    1
    39    17    36    1
    40    21    37    1
    41    22    38    1
    42    24    39    1
    43    25    40    1
    44    25    41    1
    45    25    42    1
    46    26    43    1
    47    27    44    1
    48    28    45    1
    49    29    46    1
    50    30    47    1
    51    31    48    1
    52    32    49    1
    53    33    50    1
    54    33    51    1
    55    33    52    1
    56    34    53    1
    57    34    54    1
    58    34    55    1
@<TRIPOS>MOLECULE
9912992
 55 58 0 0 0
SMALL
GASTEIGER

@<TRIPOS>ATOM
      1 S          -0.4377    0.4487    3.7176 S.O2    1  LIG1        0.0908
      2 O          -2.1934    0.7734    0.2429 O.3     1  LIG1       -0.4435
      3 O          -1.9738   -1.2272   -1.5062 O.3     1  LIG1       -0.4771
      4 O           0.6780    0.5974    4.6336 O.2     1  LIG1       -0.1484
      5 O          -1.6930    1.1189    4.0107 O.2     1  LIG1       -0.1484
      6 O          -0.2958    2.4111   -1.0869 O.3     1  LIG1       -0.4914
      7 N           0.0605    1.0737    2.2228 N.pl3   1  LIG1       -0.1950
      8 N           1.1269   -0.6089    1.0884 N.ar    1  LIG1       -0.2073
      9 N           0.1582   -1.8177   -0.7146 N.ar    1  LIG1       -0.1899
     10 N          -2.0121   -1.6154    3.1104 N.ar    1  LIG1       -0.2351
     11 N           4.6885   -3.9933   -0.1451 N.ar    1  LIG1       -0.2632
     12 C           0.0298    0.1685    1.1211 C.ar    1  LIG1        0.1882
     13 C          -1.0386    0.0419    0.2523 C.ar    1  LIG1        0.2307
     14 C          -0.7531   -1.3021    3.5152 C.ar    1  LIG1        0.1969
     15 C          -0.9155   -1.0053   -0.6410 C.ar    1  LIG1        0.2638
     16 C           1.1561   -1.5669    0.1477 C.ar    1  LIG1        0.1659
     17 C           0.2370   -2.2246    3.8164 C.ar    1  LIG1       -0.0160
     18 C           2.3625   -2.4030    0.0566 C.ar    1  LIG1        0.0222
     19 C          -2.1403    2.1432    0.3810 C.ar    1  LIG1        0.1702
     20 C          -1.3677   -3.9459    3.2880 C.ar    1  LIG1       -0.0322
     21 C          -0.0813   -3.5719    3.6891 C.ar    1  LIG1       -0.0541
     22 C          -2.2900   -2.9342    3.0259 C.ar    1  LIG1        0.0327
     23 C          -1.2024    2.9890   -0.2389 C.ar    1  LIG1        0.1621
     24 C          -3.1206    2.6729    1.2278 C.ar    1  LIG1       -0.0157
     25 C          -1.7656   -5.3870    3.2218 C.3     1  LIG1       -0.0383
     26 C           3.5967   -1.9611    0.5569 C.ar    1  LIG1       -0.0329
     27 C           2.3335   -3.6689   -0.5462 C.ar    1  LIG1       -0.0329
     28 C          -1.2487    4.3601    0.0387 C.ar    1  LIG1       -0.0163
     29 C          -3.1511    4.0373    1.4993 C.ar    1  LIG1       -0.0581
     30 C          -2.2127    4.8786    0.9095 C.ar    1  LIG1       -0.0581
     31 C           4.7118   -2.7743    0.4303 C.ar    1  LIG1        0.0282
     32 C           3.4996   -4.4145   -0.6199 C.ar    1  LIG1        0.0282
     33 C          -1.7593   -2.3034   -2.4120 C.3     1  LIG1        0.0805
     34 C           0.8694    3.1670   -1.3997 C.3     1  LIG1        0.0790
     35 H          -0.5468    1.8748    2.0651 H       1  LIG1        0.1754
     36 H           1.2256   -1.9081    4.1319 H       1  LIG1        0.0653
     37 H           0.6709   -4.3243    3.9158 H       1  LIG1        0.0622
     38 H          -3.3134   -3.1665    2.7408 H       1  LIG1        0.0833
     39 H          -3.8437    2.0118    1.7020 H       1  LIG1        0.0655
     40 H          -0.9063   -6.0189    2.9742 H       1  LIG1        0.0278
     41 H          -2.5232   -5.5484    2.4480 H       1  LIG1        0.0278
     42 H          -2.1710   -5.7073    4.1867 H       1  LIG1        0.0278
     43 H           3.6951   -0.9874    1.0287 H       1  LIG1        0.0640
     44 H           1.4123   -4.0750   -0.9535 H       1  LIG1        0.0640
     45 H          -0.5515    5.0587   -0.4131 H       1  LIG1        0.0655
     46 H          -3.9023    4.4397    2.1745 H       1  LIG1        0.0619
     47 H          -2.2343    5.9451    1.1223 H       1  LIG1        0.0619
     48 H           5.6828   -2.4525    0.7965 H       1  LIG1        0.0830
     49 H           3.5061   -5.3993   -1.0784 H       1  LIG1        0.0830
     50 H          -2.6455   -2.3851   -3.0487 H       1  LIG1        0.0660
     51 H          -1.6444   -3.2535   -1.8788 H       1  LIG1        0.0660
     52 H          -0.8988   -2.1104   -3.0618 H       1  LIG1        0.0660
     53 H           1.5611    2.5087   -1.9341 H       1  LIG1        0.0660
     54 H           1.3764    3.5148   -0.4928 H       1  LIG1        0.0660
     55 H           0.6259    4.0033   -2.0624 H       1  LIG1        0.0660
@<TRIPOS>BOND
     1     1     4    2
     2     1     5    2
     3     1     7    1
     4     1    14    1
     5     2    13    1
     6     2    19    1
     7     3    15    1
     8     3    33    1
     9     6    23    1
    10     6    34    1
    11     7    12    1
    12     8    12   ar
    13     8    16   ar
    14     9    15   ar
    15     9    16   ar
    16    10    14   ar
    17    10    22   ar
    18    11    31   ar
    19    11    32   ar
    20    12    13   ar
    21    13    15   ar
    22    14    17   ar
    23    16    18    1
    24    17    21   ar
    25    18    26   ar
    26    18    27   ar
    27    19    23   ar
    28    19    24   ar
    29    20    21   ar
    30    20    22   ar
    31    20    25    1
    32    23    28   ar
    33    24    29   ar
    34    26    31   ar
    35    27    32   ar
    36    28    30   ar
    37    29    30   ar
    38     7    35    1
    39    17    36    1
    40    21    37    1
    41    22    38    1
    42    24    39    1
    43    25    40    1
    44    25    41    1
    45    25    42    1
    46    26    43    1
    47    27    44    1
    48    28    45    1
    49    29    46    1
    50    30    47    1
    51    31    48    1
    52    32    49    1
    53    33    50    1
    54    33    51    1
    55    33    52    1
    56    34    53    1
    57    34    54    1
    58    34    55    1
@<TRIPOS>MOLECULE
9912992
 55 58 0 0 0
SMALL
GASTEIGER

@<TRIPOS>ATOM
      1 S          -0.6453    0.6156    3.5228 S.O2    1  LIG1        0.0908
      2 O          -2.1545    0.7024    0.2041 O.3     1  LIG1       -0.4435
      3 O          -1.9484   -1.2981   -1.5350 O.3     1  LIG1       -0.4771
      4 O           0.1815    1.0059    4.6479 O.2     1  LIG1       -0.1484
      5 O          -1.9791    1.1563    3.3890 O.2     1  LIG1       -0.1484
      6 O          -4.4074    1.9695    1.4665 O.3     1  LIG1       -0.4914
      7 N           0.2415    1.0059    2.1296 N.pl3   1  LIG1       -0.1950
      8 N           1.2586   -0.5393    0.8682 N.ar    1  LIG1       -0.2073
      9 N           0.2257   -1.8311   -0.8256 N.ar    1  LIG1       -0.1899
     10 N           0.3635   -1.8482    3.4288 N.ar    1  LIG1       -0.2351
     11 N           4.7634   -4.0124   -0.1637 N.ar    1  LIG1       -0.2632
     12 C           0.1181    0.1524    1.0044 C.ar    1  LIG1        0.1882
     13 C          -0.9830    0.0028    0.1875 C.ar    1  LIG1        0.2307
     14 C          -0.8073   -1.1673    3.5459 C.ar    1  LIG1        0.1969
     15 C          -0.8624   -1.0451   -0.7114 C.ar    1  LIG1        0.2638
     16 C           1.2607   -1.5351   -0.0284 C.ar    1  LIG1        0.1659
     17 C          -2.0656   -1.7476    3.5762 C.ar    1  LIG1       -0.0160
     18 C           2.4607   -2.3806   -0.0926 C.ar    1  LIG1        0.0222
     19 C          -2.1646    2.0635    0.4047 C.ar    1  LIG1        0.1702
     20 C          -0.9576   -3.8767    3.3526 C.ar    1  LIG1       -0.0322
     21 C          -2.1347   -3.1315    3.4779 C.ar    1  LIG1       -0.0541
     22 C           0.2538   -3.1895    3.3372 C.ar    1  LIG1        0.0327
     23 C          -3.2706    2.6239    1.0634 C.ar    1  LIG1        0.1621
     24 C          -1.1216    2.8999   -0.0209 C.ar    1  LIG1       -0.0157
     25 C          -0.9887   -5.3655    3.2061 C.3     1  LIG1       -0.0383
     26 C           2.4108   -3.6921   -0.5870 C.ar    1  LIG1       -0.0329
     27 C           3.7023   -1.9155    0.3638 C.ar    1  LIG1       -0.0329
     28 C          -3.2319    3.9706    1.4415 C.ar    1  LIG1       -0.0163
     29 C          -1.1086    4.2486    0.3375 C.ar    1  LIG1       -0.0581
     30 C          -2.1503    4.7771    1.0938 C.ar    1  LIG1       -0.0581
     31 C           3.5671   -4.4558   -0.5989 C.ar    1  LIG1        0.0282
     32 C           4.8058   -2.7497    0.3058 C.ar    1  LIG1        0.0282
     33 C          -1.7377   -2.3741   -2.4470 C.3     1  LIG1        0.0805
     34 C          -4.8579    0.9123    0.6289 C.3     1  LIG1        0.0790
     35 H           1.2197    1.0686    2.4073 H       1  LIG1        0.1754
     36 H          -2.9661   -1.1468    3.6571 H       1  LIG1        0.0653
     37 H          -3.1060   -3.6224    3.4916 H       1  LIG1        0.0622
     38 H           1.1996   -3.7177    3.2360 H       1  LIG1        0.0833
     39 H          -0.2904    2.5128   -0.6030 H       1  LIG1        0.0655
     40 H          -1.9968   -5.7621    3.3639 H       1  LIG1        0.0278
     41 H          -0.3274   -5.8352    3.9414 H       1  LIG1        0.0278
     42 H          -0.6662   -5.6488    2.1983 H       1  LIG1        0.0278
     43 H           1.4806   -4.1210   -0.9474 H       1  LIG1        0.0640
     44 H           3.8140   -0.9099    0.7621 H       1  LIG1        0.0640
     45 H          -4.0518    4.3871    2.0213 H       1  LIG1        0.0655
     46 H          -0.2723    4.8815    0.0483 H       1  LIG1        0.0619
     47 H          -2.1260    5.8178    1.4100 H       1  LIG1        0.0619
     48 H           3.5587   -5.4783   -0.9666 H       1  LIG1        0.0830
     49 H           5.7811   -2.4127    0.6480 H       1  LIG1        0.0830
     50 H          -2.6387   -2.4770   -3.0576 H       1  LIG1        0.0660
     51 H          -1.5863   -3.3195   -1.9141 H       1  LIG1        0.0660
     52 H          -0.9000   -2.1648   -3.1220 H       1  LIG1        0.0660
     53 H          -5.9310    0.7851    0.8044 H       1  LIG1        0.0660
     54 H          -4.3725   -0.0288    0.9034 H       1  LIG1        0.0660
     55 H          -4.7233    1.1357   -0.4355 H       1  LIG1        0.0660
@<TRIPOS>BOND
     1     1     4    2
     2     1     5    2
     3     1     7    1
     4     1    14    1
     5     2    13    1
     6     2    19    1
     7     3    15    1
     8     3    33    1
     9     6    23    1
    10     6    34    1
    11     7    12    1
    12     8    12   ar
    13     8    16   ar
    14     9    15   ar
    15     9    16   ar
    16    10    14   ar
    17    10    22   ar
    18    11    31   ar
    19    11    32   ar
    20    12    13   ar
    21    13    15   ar
    22    14    17   ar
    23    16    18    1
    24    17    21   ar
    25    18    26   ar
    26    18    27   ar
    27    19    23   ar
    28    19    24   ar
    29    20    21   ar
    30    20    22   ar
    31    20    25    1
    32    23    28   ar
    33    24    29   ar
    34    26    31   ar
    35    27    32   ar
    36    28    30   ar
    37    29    30   ar
    38     7    35    1
    39    17    36    1
    40    21    37    1
    41    22    38    1
    42    24    39    1
    43    25    40    1
    44    25    41    1
    45    25    42    1
    46    26    43    1
    47    27    44    1
    48    28    45    1
    49    29    46    1
    50    30    47    1
    51    31    48    1
    52    32    49    1
    53    33    50    1
    54    33    51    1
    55    33    52    1
    56    34    53    1
    57    34    54    1
    58    34    55    1
@<TRIPOS>MOLECULE
9912992
 55 58 0 0 0
SMALL
GASTEIGER

@<TRIPOS>ATOM
      1 S          -0.8261    0.8040    3.2066 S.O2    1  LIG1        0.0908
      2 O          -2.2848    0.5333    0.1221 O.3     1  LIG1       -0.4435
      3 O          -2.1997   -1.9181   -1.2665 O.3     1  LIG1       -0.4771
      4 O          -0.0655    1.4090    4.2806 O.2     1  LIG1       -0.1484
      5 O          -2.1948    1.2212    2.9624 O.2     1  LIG1       -0.1484
      6 O          -5.2452    0.5765   -0.2340 O.3     1  LIG1       -0.4914
      7 N           0.0597    1.0660    1.7787 N.pl3   1  LIG1       -0.1950
      8 N           1.1161   -0.6252    0.7357 N.ar    1  LIG1       -0.2073
      9 N           0.0559   -2.1916   -0.6900 N.ar    1  LIG1       -0.1899
     10 N           0.3617   -1.5367    3.7146 N.ar    1  LIG1       -0.2351
     11 N           4.7503   -4.0381   -0.1091 N.ar    1  LIG1       -0.2632
     12 C          -0.0380    0.0534    0.7912 C.ar    1  LIG1        0.1882
     13 C          -1.1688   -0.2545    0.0634 C.ar    1  LIG1        0.2307
     14 C          -0.8483   -0.9775    3.4486 C.ar    1  LIG1        0.1969
     15 C          -1.0643   -1.4409   -0.6404 C.ar    1  LIG1        0.2638
     16 C           1.1216   -1.7378   -0.0110 C.ar    1  LIG1        0.1659
     17 C          -2.0264   -1.6863    3.2665 C.ar    1  LIG1       -0.0160
     18 C           2.3632   -2.5287   -0.0493 C.ar    1  LIG1        0.0222
     19 C          -2.8995    0.8807   -1.0680 C.ar    1  LIG1        0.1702
     20 C          -0.7430   -3.6952    3.6161 C.ar    1  LIG1       -0.0322
     21 C          -1.9643   -3.0728    3.3447 C.ar    1  LIG1       -0.0541
     22 C           0.3752   -2.8848    3.8122 C.ar    1  LIG1        0.0327
     23 C          -4.3001    0.8909   -1.1738 C.ar    1  LIG1        0.1621
     24 C          -2.1225    1.2726   -2.1749 C.ar    1  LIG1       -0.0157
     25 C          -0.6610   -5.1845    3.7478 C.3     1  LIG1       -0.0383
     26 C           3.5677   -2.0192    0.4649 C.ar    1  LIG1       -0.0329
     27 C           2.3978   -3.8169   -0.5950 C.ar    1  LIG1       -0.0329
     28 C          -4.8851    1.2418   -2.4006 C.ar    1  LIG1       -0.0163
     29 C          -2.7240    1.6058   -3.3901 C.ar    1  LIG1       -0.0581
     30 C          -4.1079    1.5867   -3.5054 C.ar    1  LIG1       -0.0581
     31 C           4.7137   -2.7961    0.4115 C.ar    1  LIG1        0.0282
     32 C           3.5919   -4.5213   -0.6005 C.ar    1  LIG1        0.0282
     33 C          -1.9752   -3.0690   -2.0737 C.3     1  LIG1        0.0805
     34 C          -4.8249    0.3034    1.0891 C.3     1  LIG1        0.0790
     35 H           1.0354    1.2091    2.0430 H       1  LIG1        0.1754
     36 H          -2.9617   -1.1858    3.0479 H       1  LIG1        0.0653
     37 H          -2.8646   -3.6616    3.1922 H       1  LIG1        0.0622
     38 H           1.3442   -3.3132    4.0544 H       1  LIG1        0.0833
     39 H          -1.0397    1.3188   -2.1090 H       1  LIG1        0.0655
     40 H          -1.2623   -5.6716    2.9732 H       1  LIG1        0.0278
     41 H          -1.0296   -5.4943    4.7312 H       1  LIG1        0.0278
     42 H           0.3687   -5.5373    3.6328 H       1  LIG1        0.0278
     43 H           3.6198   -1.0267    0.9042 H       1  LIG1        0.0640
     44 H           1.5054   -4.2771   -1.0079 H       1  LIG1        0.0640
     45 H          -5.9703    1.2440   -2.4918 H       1  LIG1        0.0655
     46 H          -2.1114    1.8843   -4.2450 H       1  LIG1        0.0619
     47 H          -4.5864    1.8473   -4.4447 H       1  LIG1        0.0619
     48 H           5.6589   -2.4261    0.7987 H       1  LIG1        0.0830
     49 H           3.6468   -5.5245   -1.0139 H       1  LIG1        0.0830
     50 H          -2.9181   -3.3163   -2.5704 H       1  LIG1        0.0660
     51 H          -1.6849   -3.9285   -1.4608 H       1  LIG1        0.0660
     52 H          -1.2298   -2.8702   -2.8519 H       1  LIG1        0.0660
     53 H          -5.7202    0.1308    1.6947 H       1  LIG1        0.0660
     54 H          -4.3017    1.1598    1.5208 H       1  LIG1        0.0660
     55 H          -4.2314   -0.6137    1.1251 H       1  LIG1        0.0660
@<TRIPOS>BOND
     1     1     4    2
     2     1     5    2
     3     1     7    1
     4     1    14    1
     5     2    13    1
     6     2    19    1
     7     3    15    1
     8     3    33    1
     9     6    23    1
    10     6    34    1
    11     7    12    1
    12     8    12   ar
    13     8    16   ar
    14     9    15   ar
    15     9    16   ar
    16    10    14   ar
    17    10    22   ar
    18    11    31   ar
    19    11    32   ar
    20    12    13   ar
    21    13    15   ar
    22    14    17   ar
    23    16    18    1
    24    17    21   ar
    25    18    26   ar
    26    18    27   ar
    27    19    23   ar
    28    19    24   ar
    29    20    21   ar
    30    20    22   ar
    31    20    25    1
    32    23    28   ar
    33    24    29   ar
    34    26    31   ar
    35    27    32   ar
    36    28    30   ar
    37    29    30   ar
    38     7    35    1
    39    17    36    1
    40    21    37    1
    41    22    38    1
    42    24    39    1
    43    25    40    1
    44    25    41    1
    45    25    42    1
    46    26    43    1
    47    27    44    1
    48    28    45    1
    49    29    46    1
    50    30    47    1
    51    31    48    1
    52    32    49    1
    53    33    50    1
    54    33    51    1
    55    33    52    1
    56    34    53    1
    57    34    54    1
    58    34    55    1
@<TRIPOS>MOLECULE
9912992
 55 58 0 0 0
SMALL
GASTEIGER

@<TRIPOS>ATOM
      1 S           1.0564    2.7054    1.1750 S.O2    1  LIG1        0.0908
      2 O          -2.4721    0.5508    0.4345 O.3     1  LIG1       -0.4435
      3 O          -2.2340   -1.5465   -1.2019 O.3     1  LIG1       -0.4771
      4 O           0.7728    3.9022    1.9442 O.2     1  LIG1       -0.1484
      5 O           2.4131    2.2099    1.0722 O.2     1  LIG1       -0.1484
      6 O          -3.8371    2.8034    0.5586 O.3     1  LIG1       -0.4914
      7 N           0.0366    1.4915    1.7828 N.pl3   1  LIG1       -0.1950
      8 N           1.0725   -0.3618    0.8762 N.ar    1  LIG1       -0.2073
      9 N           0.0318   -1.8370   -0.6598 N.ar    1  LIG1       -0.1899
     10 N          -0.8489    3.4214   -0.5183 N.ar    1  LIG1       -0.2351
     11 N           4.6770   -3.7615   -0.1815 N.ar    1  LIG1       -0.2632
     12 C          -0.0792    0.3182    0.9818 C.ar    1  LIG1        0.1882
     13 C          -1.2540   -0.0683    0.3592 C.ar    1  LIG1        0.2307
     14 C           0.4253    2.9488   -0.4841 C.ar    1  LIG1        0.1969
     15 C          -1.1155   -1.1514   -0.4884 C.ar    1  LIG1        0.2638
     16 C           1.0841   -1.4266    0.0622 C.ar    1  LIG1        0.1659
     17 C           1.1524    2.5435   -1.5899 C.ar    1  LIG1       -0.0160
     18 C           2.3235   -2.2095   -0.0308 C.ar    1  LIG1        0.0222
     19 C          -2.9606    0.9213    1.6708 C.ar    1  LIG1        0.1702
     20 C          -0.7747    3.1338   -2.9200 C.ar    1  LIG1       -0.0322
     21 C           0.5308    2.6392   -2.8313 C.ar    1  LIG1       -0.0541
     22 C          -1.4098    3.5126   -1.7404 C.ar    1  LIG1        0.0327
     23 C          -3.6402    2.1498    1.7463 C.ar    1  LIG1        0.1621
     24 C          -2.7851    0.1342    2.8161 C.ar    1  LIG1       -0.0157
     25 C          -1.4903    3.2469   -4.2293 C.3     1  LIG1       -0.0383
     26 C           2.6378   -2.9496   -1.1796 C.ar    1  LIG1       -0.0329
     27 C           3.2321   -2.2626    1.0357 C.ar    1  LIG1       -0.0329
     28 C          -4.0494    2.6203    2.9959 C.ar    1  LIG1       -0.0163
     29 C          -3.2030    0.6143    4.0553 C.ar    1  LIG1       -0.0581
     30 C          -3.8183    1.8610    4.1464 C.ar    1  LIG1       -0.0581
     31 C           3.8072   -3.6930   -1.2088 C.ar    1  LIG1        0.0282
     32 C           4.3704   -3.0439    0.9184 C.ar    1  LIG1        0.0282
     33 C          -2.0247   -2.7079   -1.9989 C.3     1  LIG1        0.0805
     34 C          -4.4661    4.0766    0.6084 C.3     1  LIG1        0.0790
     35 H          -0.8382    1.9393    2.0493 H       1  LIG1        0.1754
     36 H           2.1535    2.1369   -1.4908 H       1  LIG1        0.0653
     37 H           1.0628    2.3170   -3.7230 H       1  LIG1        0.0622
     38 H          -2.4250    3.9008   -1.7506 H       1  LIG1        0.0833
     39 H          -2.3078   -0.8401    2.7624 H       1  LIG1        0.0655
     40 H          -0.8575    2.9227   -5.0616 H       1  LIG1        0.0278
     41 H          -1.7809    4.2865   -4.4129 H       1  LIG1        0.0278
     42 H          -2.3875    2.6195   -4.2239 H       1  LIG1        0.0278
     43 H           1.9831   -2.9453   -2.0460 H       1  LIG1        0.0640
     44 H           3.0511   -1.7115    1.9545 H       1  LIG1        0.0640
     45 H          -4.5457    3.5785    3.1124 H       1  LIG1        0.0655
     46 H          -3.0408    0.0214    4.9523 H       1  LIG1        0.0619
     47 H          -4.1296    2.2419    5.1164 H       1  LIG1        0.0619
     48 H           4.0812   -4.2711   -2.0867 H       1  LIG1        0.0830
     49 H           5.0841   -3.1168    1.7346 H       1  LIG1        0.0830
     50 H          -2.9605   -2.9277   -2.5216 H       1  LIG1        0.0660
     51 H          -1.7789   -3.5744   -1.3752 H       1  LIG1        0.0660
     52 H          -1.2528   -2.5383   -2.7579 H       1  LIG1        0.0660
     53 H          -4.5670    4.4391   -0.4193 H       1  LIG1        0.0660
     54 H          -3.8510    4.7964    1.1576 H       1  LIG1        0.0660
     55 H          -5.4733    4.0066    1.0315 H       1  LIG1        0.0660
@<TRIPOS>BOND
     1     1     4    2
     2     1     5    2
     3     1     7    1
     4     1    14    1
     5     2    13    1
     6     2    19    1
     7     3    15    1
     8     3    33    1
     9     6    23    1
    10     6    34    1
    11     7    12    1
    12     8    12   ar
    13     8    16   ar
    14     9    15   ar
    15     9    16   ar
    16    10    14   ar
    17    10    22   ar
    18    11    31   ar
    19    11    32   ar
    20    12    13   ar
    21    13    15   ar
    22    14    17   ar
    23    16    18    1
    24    17    21   ar
    25    18    26   ar
    26    18    27   ar
    27    19    23   ar
    28    19    24   ar
    29    20    21   ar
    30    20    22   ar
    31    20    25    1
    32    23    28   ar
    33    24    29   ar
    34    26    31   ar
    35    27    32   ar
    36    28    30   ar
    37    29    30   ar
    38     7    35    1
    39    17    36    1
    40    21    37    1
    41    22    38    1
    42    24    39    1
    43    25    40    1
    44    25    41    1
    45    25    42    1
    46    26    43    1
    47    27    44    1
    48    28    45    1
    49    29    46    1
    50    30    47    1
    51    31    48    1
    52    32    49    1
    53    33    50    1
    54    33    51    1
    55    33    52    1
    56    34    53    1
    57    34    54    1
    58    34    55    1
@<TRIPOS>MOLECULE
9912992
 55 58 0 0 0
SMALL
GASTEIGER

@<TRIPOS>ATOM
      1 S          -0.5028    0.5047    3.5750 S.O2    1  LIG1        0.0908
      2 O          -2.0869    0.7178    0.0158 O.3     1  LIG1       -0.4435
      3 O          -1.8239   -1.3067   -1.6333 O.3     1  LIG1       -0.4771
      4 O           0.6046    0.0278    4.3830 O.2     1  LIG1       -0.1484
      5 O          -1.3244    1.6002    4.0629 O.2     1  LIG1       -0.1484
      6 O          -4.2100    1.7721    1.5822 O.3     1  LIG1       -0.4914
      7 N           0.0925    1.0690    2.0946 N.pl3   1  LIG1       -0.1950
      8 N           1.2356   -0.5950    0.9881 N.ar    1  LIG1       -0.2073
      9 N           0.2964   -1.8725   -0.7901 N.ar    1  LIG1       -0.1899
     10 N          -0.9619   -1.9735    2.7553 N.ar    1  LIG1       -0.2351
     11 N           4.8262   -3.9928   -0.1705 N.ar    1  LIG1       -0.2632
     12 C           0.1264    0.1608    1.0010 C.ar    1  LIG1        0.1882
     13 C          -0.9168    0.0131    0.0982 C.ar    1  LIG1        0.2307
     14 C          -1.5969   -0.8736    3.2375 C.ar    1  LIG1        0.1969
     15 C          -0.7748   -1.0616   -0.7609 C.ar    1  LIG1        0.2638
     16 C           1.2754   -1.5929    0.0880 C.ar    1  LIG1        0.1659
     17 C          -2.9608   -0.7876    3.4567 C.ar    1  LIG1       -0.0160
     18 C           2.4877   -2.4215    0.0209 C.ar    1  LIG1        0.0222
     19 C          -2.1185    2.0554    0.3129 C.ar    1  LIG1        0.1702
     20 C          -3.1121   -3.0636    2.6513 C.ar    1  LIG1       -0.0322
     21 C          -3.7288   -1.9106    3.1501 C.ar    1  LIG1       -0.0541
     22 C          -1.7326   -3.0406    2.4797 C.ar    1  LIG1        0.0327
     23 C          -3.1593    2.5241    1.1253 C.ar    1  LIG1        0.1621
     24 C          -1.1298    2.9387   -0.1430 C.ar    1  LIG1       -0.0157
     25 C          -3.8855   -4.2933    2.2967 C.3     1  LIG1       -0.0383
     26 C           2.4477   -3.7372   -0.4658 C.ar    1  LIG1       -0.0329
     27 C           3.7351   -1.9224    0.4174 C.ar    1  LIG1       -0.0329
     28 C          -3.1099    3.8331    1.6066 C.ar    1  LIG1       -0.0163
     29 C          -1.0961    4.2481    0.3364 C.ar    1  LIG1       -0.0581
     30 C          -2.0734    4.6879    1.2273 C.ar    1  LIG1       -0.0581
     31 C           3.6209   -4.4716   -0.5361 C.ar    1  LIG1        0.0282
     32 C           4.8561   -2.7290    0.3000 C.ar    1  LIG1        0.0282
     33 C          -1.6197   -2.4325   -2.4794 C.3     1  LIG1        0.0805
     34 C          -4.8034    0.9143    0.6074 C.3     1  LIG1        0.0790
     35 H          -0.3406    1.9702    1.9229 H       1  LIG1        0.1754
     36 H          -3.4226    0.1166    3.8407 H       1  LIG1        0.0653
     37 H          -4.8053   -1.8812    3.3029 H       1  LIG1        0.0622
     38 H          -1.1932   -3.9052    2.1011 H       1  LIG1        0.0833
     39 H          -0.3485    2.6035   -0.8207 H       1  LIG1        0.0655
     40 H          -4.9476   -4.1836    2.5357 H       1  LIG1        0.0278
     41 H          -3.5019   -5.1543    2.8541 H       1  LIG1        0.0278
     42 H          -3.7970   -4.4946    1.2239 H       1  LIG1        0.0278
     43 H           1.5131   -4.1895   -0.7829 H       1  LIG1        0.0640
     44 H           3.8368   -0.9120    0.8028 H       1  LIG1        0.0640
     45 H          -3.8796    4.1874    2.2884 H       1  LIG1        0.0655
     46 H          -0.2944    4.9193    0.0361 H       1  LIG1        0.0619
     47 H          -2.0343    5.6994    1.6253 H       1  LIG1        0.0619
     48 H           3.6200   -5.4949   -0.9008 H       1  LIG1        0.0830
     49 H           5.8379   -2.3640    0.5876 H       1  LIG1        0.0830
     50 H          -2.5098   -2.5416   -3.1070 H       1  LIG1        0.0660
     51 H          -1.5096   -3.3541   -1.8974 H       1  LIG1        0.0660
     52 H          -0.7613   -2.2778   -3.1415 H       1  LIG1        0.0660
     53 H          -5.8537    0.7748    0.8810 H       1  LIG1        0.0660
     54 H          -4.3288   -0.0710    0.6293 H       1  LIG1        0.0660
     55 H          -4.7752    1.3377   -0.4030 H       1  LIG1        0.0660
@<TRIPOS>BOND
     1     1     4    2
     2     1     5    2
     3     1     7    1
     4     1    14    1
     5     2    13    1
     6     2    19    1
     7     3    15    1
     8     3    33    1
     9     6    23    1
    10     6    34    1
    11     7    12    1
    12     8    12   ar
    13     8    16   ar
    14     9    15   ar
    15     9    16   ar
    16    10    14   ar
    17    10    22   ar
    18    11    31   ar
    19    11    32   ar
    20    12    13   ar
    21    13    15   ar
    22    14    17   ar
    23    16    18    1
    24    17    21   ar
    25    18    26   ar
    26    18    27   ar
    27    19    23   ar
    28    19    24   ar
    29    20    21   ar
    30    20    22   ar
    31    20    25    1
    32    23    28   ar
    33    24    29   ar
    34    26    31   ar
    35    27    32   ar
    36    28    30   ar
    37    29    30   ar
    38     7    35    1
    39    17    36    1
    40    21    37    1
    41    22    38    1
    42    24    39    1
    43    25    40    1
    44    25    41    1
    45    25    42    1
    46    26    43    1
    47    27    44    1
    48    28    45    1
    49    29    46    1
    50    30    47    1
    51    31    48    1
    52    32    49    1
    53    33    50    1
    54    33    51    1
    55    33    52    1
    56    34    53    1
    57    34    54    1
    58    34    55    1
@<TRIPOS>MOLECULE
9912992
 55 58 0 0 0
SMALL
GASTEIGER

@<TRIPOS>ATOM
      1 S          -0.5097    0.5198    3.5334 S.O2    1  LIG1        0.0908
      2 O          -2.1679    0.7238    0.0873 O.3     1  LIG1       -0.4435
      3 O          -1.8130   -1.1823   -1.7183 O.3     1  LIG1       -0.4771
      4 O          -1.7060    1.2929    3.8158 O.2     1  LIG1       -0.1484
      5 O          -0.5575   -0.9256    3.5155 O.2     1  LIG1       -0.1484
      6 O          -4.2376    2.0103    1.7067 O.3     1  LIG1       -0.4914
      7 N           0.0802    1.1425    2.0690 N.pl3   1  LIG1       -0.1950
      8 N           1.2009   -0.5242    0.9642 N.ar    1  LIG1       -0.2073
      9 N           0.2947   -1.7564   -0.8538 N.ar    1  LIG1       -0.1899
     10 N           1.8221    0.2613    4.8196 N.ar    1  LIG1       -0.2351
     11 N           4.7695   -3.9756   -0.0911 N.ar    1  LIG1       -0.2632
     12 C           0.0770    0.2118    0.9928 C.ar    1  LIG1        0.1882
     13 C          -0.9768    0.0520    0.1108 C.ar    1  LIG1        0.2307
     14 C           0.7541    1.0860    4.6746 C.ar    1  LIG1        0.1969
     15 C          -0.7966   -0.9708   -0.8013 C.ar    1  LIG1        0.2638
     16 C           1.2564   -1.5052    0.0496 C.ar    1  LIG1        0.1659
     17 C           0.6095    2.3137    5.3071 C.ar    1  LIG1       -0.0160
     18 C           2.4576   -2.3538    0.0127 C.ar    1  LIG1        0.0222
     19 C          -2.2033    2.0842    0.2651 C.ar    1  LIG1        0.1702
     20 C           2.7652    1.9237    6.3134 C.ar    1  LIG1       -0.0322
     21 C           1.6410    2.7357    6.1393 C.ar    1  LIG1       -0.0541
     22 C           2.7953    0.6998    5.6461 C.ar    1  LIG1        0.0327
     23 C          -3.2017    2.6434    1.0762 C.ar    1  LIG1        0.1621
     24 C          -1.2561    2.9182   -0.3531 C.ar    1  LIG1       -0.0157
     25 C           3.8911    2.3309    7.2111 C.3     1  LIG1       -0.0383
     26 C           2.4362   -3.6236   -0.5845 C.ar    1  LIG1       -0.0329
     27 C           3.6727   -1.9294    0.5673 C.ar    1  LIG1       -0.0329
     28 C          -3.1592    4.0168    1.3471 C.ar    1  LIG1       -0.0163
     29 C          -1.2348    4.2858   -0.0786 C.ar    1  LIG1       -0.0581
     30 C          -2.1772    4.8329    0.7856 C.ar    1  LIG1       -0.0581
     31 C           3.5939   -4.3851   -0.6076 C.ar    1  LIG1        0.0282
     32 C           4.7813   -2.7577    0.4879 C.ar    1  LIG1        0.0282
     33 C          -1.4797   -2.1238   -2.7333 C.3     1  LIG1        0.0805
     34 C          -4.5822    0.6936    1.2993 C.3     1  LIG1        0.0790
     35 H          -0.4639    1.9806    1.8820 H       1  LIG1        0.1754
     36 H          -0.2669    2.9336    5.1507 H       1  LIG1        0.0653
     37 H           1.5656    3.6961    6.6438 H       1  LIG1        0.0622
     38 H           3.6345    0.0177    5.7612 H       1  LIG1        0.0833
     39 H          -0.5145    2.5105   -1.0359 H       1  LIG1        0.0655
     40 H           3.8124    3.3858    7.4950 H       1  LIG1        0.0278
     41 H           4.8514    2.1995    6.7016 H       1  LIG1        0.0278
     42 H           3.8823    1.7281    8.1244 H       1  LIG1        0.0278
     43 H           1.5250   -4.0234   -1.0197 H       1  LIG1        0.0640
     44 H           3.7589   -0.9616    1.0526 H       1  LIG1        0.0640
     45 H          -3.9079    4.4530    2.0058 H       1  LIG1        0.0655
     46 H          -0.4825    4.9237   -0.5366 H       1  LIG1        0.0619
     47 H          -2.1635    5.8961    1.0121 H       1  LIG1        0.0619
     48 H           3.6031   -5.3746   -1.0558 H       1  LIG1        0.0830
     49 H           5.7377   -2.4505    0.9008 H       1  LIG1        0.0830
     50 H          -2.3233   -2.1770   -3.4283 H       1  LIG1        0.0660
     51 H          -1.3292   -3.1240   -2.3131 H       1  LIG1        0.0660
     52 H          -0.6012   -1.7990   -3.3020 H       1  LIG1        0.0660
     53 H          -5.5566    0.4552    1.7372 H       1  LIG1        0.0660
     54 H          -3.8649   -0.0345    1.6898 H       1  LIG1        0.0660
     55 H          -4.6886    0.6186    0.2119 H       1  LIG1        0.0660
@<TRIPOS>BOND
     1     1     4    2
     2     1     5    2
     3     1     7    1
     4     1    14    1
     5     2    13    1
     6     2    19    1
     7     3    15    1
     8     3    33    1
     9     6    23    1
    10     6    34    1
    11     7    12    1
    12     8    12   ar
    13     8    16   ar
    14     9    15   ar
    15     9    16   ar
    16    10    14   ar
    17    10    22   ar
    18    11    31   ar
    19    11    32   ar
    20    12    13   ar
    21    13    15   ar
    22    14    17   ar
    23    16    18    1
    24    17    21   ar
    25    18    26   ar
    26    18    27   ar
    27    19    23   ar
    28    19    24   ar
    29    20    21   ar
    30    20    22   ar
    31    20    25    1
    32    23    28   ar
    33    24    29   ar
    34    26    31   ar
    35    27    32   ar
    36    28    30   ar
    37    29    30   ar
    38     7    35    1
    39    17    36    1
    40    21    37    1
    41    22    38    1
    42    24    39    1
    43    25    40    1
    44    25    41    1
    45    25    42    1
    46    26    43    1
    47    27    44    1
    48    28    45    1
    49    29    46    1
    50    30    47    1
    51    31    48    1
    52    32    49    1
    53    33    50    1
    54    33    51    1
    55    33    52    1
    56    34    53    1
    57    34    54    1
    58    34    55    1
@<TRIPOS>MOLECULE
9912992
 55 58 0 0 0
SMALL
GASTEIGER

@<TRIPOS>ATOM
      1 S          -0.3385    0.2771    3.6105 S.O2    1  LIG1        0.0908
      2 O          -2.1051    0.7121    0.0158 O.3     1  LIG1       -0.4435
      3 O          -1.7239   -1.2006   -1.7722 O.3     1  LIG1       -0.4771
      4 O           0.8672   -0.3178    4.1453 O.2     1  LIG1       -0.1484
      5 O          -1.0411    1.2977    4.3741 O.2     1  LIG1       -0.1484
      6 O          -4.1336    1.7429    1.6716 O.3     1  LIG1       -0.4914
      7 N          -0.0042    1.0187    2.1300 N.pl3   1  LIG1       -0.1950
      8 N           1.2212   -0.5640    0.9889 N.ar    1  LIG1       -0.2073
      9 N           0.3827   -1.7525   -0.8902 N.ar    1  LIG1       -0.1899
     10 N          -0.9739   -2.1367    2.6945 N.ar    1  LIG1       -0.2351
     11 N           4.8433   -3.9801   -0.0146 N.ar    1  LIG1       -0.2632
     12 C           0.1010    0.1728    0.9951 C.ar    1  LIG1        0.1882
     13 C          -0.9117    0.0444    0.0591 C.ar    1  LIG1        0.2307
     14 C          -1.5225   -1.0243    3.2506 C.ar    1  LIG1        0.1969
     15 C          -0.7143   -0.9760   -0.8503 C.ar    1  LIG1        0.2638
     16 C           1.3182   -1.5149    0.0457 C.ar    1  LIG1        0.1659
     17 C          -2.8705   -0.8666    3.5263 C.ar    1  LIG1       -0.0160
     18 C           2.5243   -2.3612    0.0305 C.ar    1  LIG1        0.0222
     19 C          -2.1432    2.0583    0.2789 C.ar    1  LIG1        0.1702
     20 C          -3.1894   -3.0980    2.6511 C.ar    1  LIG1       -0.0322
     21 C          -3.7159   -1.9286    3.2110 C.ar    1  LIG1       -0.0541
     22 C          -1.8186   -3.1477    2.4182 C.ar    1  LIG1        0.0327
     23 C          -3.1535    2.5309    1.1275 C.ar    1  LIG1        0.1621
     24 C          -1.2025    2.9494   -0.2510 C.ar    1  LIG1       -0.0157
     25 C          -4.0502   -4.2730    2.3105 C.3     1  LIG1       -0.0383
     26 C           2.6930   -3.3794   -0.9217 C.ar    1  LIG1       -0.0329
     27 C           3.5552   -2.1893    0.9652 C.ar    1  LIG1       -0.0329
     28 C          -3.1393    3.8617    1.5442 C.ar    1  LIG1       -0.0163
     29 C          -1.2109    4.2862    0.1503 C.ar    1  LIG1       -0.0581
     30 C          -2.1670    4.7373    1.0600 C.ar    1  LIG1       -0.0581
     31 C           3.8464   -4.1475   -0.9047 C.ar    1  LIG1        0.0282
     32 C           4.6740   -3.0058    0.9028 C.ar    1  LIG1        0.0282
     33 C          -1.5435   -2.3891   -2.5349 C.3     1  LIG1        0.0805
     34 C          -4.8609    0.9946    0.6952 C.3     1  LIG1        0.0790
     35 H          -0.5631    1.8617    2.0448 H       1  LIG1        0.1754
     36 H          -3.2607    0.0480    3.9611 H       1  LIG1        0.0653
     37 H          -4.7817   -1.8410    3.4092 H       1  LIG1        0.0622
     38 H          -1.3480   -4.0303    1.9920 H       1  LIG1        0.0833
     39 H          -0.4422    2.6120   -0.9510 H       1  LIG1        0.0655
     40 H          -5.0981   -4.0921    2.5692 H       1  LIG1        0.0278
     41 H          -3.7156   -5.1577    2.8624 H       1  LIG1        0.0278
     42 H          -3.9977   -4.4801    1.2366 H       1  LIG1        0.0278
     43 H           1.9348   -3.5777   -1.6731 H       1  LIG1        0.0640
     44 H           3.4901   -1.4299    1.7405 H       1  LIG1        0.0640
     45 H          -3.8893    4.2185    2.2459 H       1  LIG1        0.0655
     46 H          -0.4619    4.9752   -0.2343 H       1  LIG1        0.0619
     47 H          -2.1605    5.7742    1.3887 H       1  LIG1        0.0619
     48 H           3.9999   -4.9411   -1.6304 H       1  LIG1        0.0830
     49 H           5.4872   -2.8911    1.6137 H       1  LIG1        0.0830
     50 H          -2.4212   -2.5087   -3.1775 H       1  LIG1        0.0660
     51 H          -1.4834   -3.2718   -1.8881 H       1  LIG1        0.0660
     52 H          -0.6631   -2.3139   -3.1818 H       1  LIG1        0.0660
     53 H          -5.8884    0.8865    1.0554 H       1  LIG1        0.0660
     54 H          -4.4368   -0.0092    0.5983 H       1  LIG1        0.0660
     55 H          -4.8994    1.4917   -0.2813 H       1  LIG1        0.0660
@<TRIPOS>BOND
     1     1     4    2
     2     1     5    2
     3     1     7    1
     4     1    14    1
     5     2    13    1
     6     2    19    1
     7     3    15    1
     8     3    33    1
     9     6    23    1
    10     6    34    1
    11     7    12    1
    12     8    12   ar
    13     8    16   ar
    14     9    15   ar
    15     9    16   ar
    16    10    14   ar
    17    10    22   ar
    18    11    31   ar
    19    11    32   ar
    20    12    13   ar
    21    13    15   ar
    22    14    17   ar
    23    16    18    1
    24    17    21   ar
    25    18    26   ar
    26    18    27   ar
    27    19    23   ar
    28    19    24   ar
    29    20    21   ar
    30    20    22   ar
    31    20    25    1
    32    23    28   ar
    33    24    29   ar
    34    26    31   ar
    35    27    32   ar
    36    28    30   ar
    37    29    30   ar
    38     7    35    1
    39    17    36    1
    40    21    37    1
    41    22    38    1
    42    24    39    1
    43    25    40    1
    44    25    41    1
    45    25    42    1
    46    26    43    1
    47    27    44    1
    48    28    45    1
    49    29    46    1
    50    30    47    1
    51    31    48    1
    52    32    49    1
    53    33    50    1
    54    33    51    1
    55    33    52    1
    56    34    53    1
    57    34    54    1
    58    34    55    1
@<TRIPOS>MOLECULE
9912992
 55 58 0 0 0
SMALL
GASTEIGER

@<TRIPOS>ATOM
      1 S          -0.6305    0.6716    3.4697 S.O2    1  LIG1        0.0908
      2 O          -2.1621    0.6704    0.1153 O.3     1  LIG1       -0.4435
      3 O          -1.9111   -1.3320   -1.6118 O.3     1  LIG1       -0.4771
      4 O          -1.7305    1.5979    3.6387 O.2     1  LIG1       -0.1484
      5 O          -0.8189   -0.7576    3.5850 O.2     1  LIG1       -0.1484
      6 O          -4.3565    1.9154    1.5100 O.3     1  LIG1       -0.4914
      7 N           0.1909    1.0553    2.0308 N.pl3   1  LIG1       -0.1950
      8 N           1.1936   -0.6455    0.9529 N.ar    1  LIG1       -0.2073
      9 N           0.2260   -1.8998   -0.8094 N.ar    1  LIG1       -0.1899
     10 N           1.8878    0.7635    4.2829 N.ar    1  LIG1       -0.2351
     11 N           4.8024   -4.0097   -0.1489 N.ar    1  LIG1       -0.2632
     12 C           0.0725    0.0913    1.0022 C.ar    1  LIG1        0.1882
     13 C          -1.0063   -0.0550    0.1569 C.ar    1  LIG1        0.2307
     14 C           0.6337    1.1541    4.6530 C.ar    1  LIG1        0.1969
     15 C          -0.8655   -1.1077   -0.7298 C.ar    1  LIG1        0.2638
     16 C           1.2221   -1.6350    0.0493 C.ar    1  LIG1        0.1659
     17 C           0.3419    2.0212    5.6914 C.ar    1  LIG1       -0.0160
     18 C           2.4416   -2.4590   -0.0151 C.ar    1  LIG1        0.0222
     19 C          -2.1606    2.0232    0.3594 C.ar    1  LIG1        0.1702
     20 C           2.7146    2.0777    6.1423 C.ar    1  LIG1       -0.0322
     21 C           1.4116    2.4866    6.4497 C.ar    1  LIG1       -0.0541
     22 C           2.8914    1.2116    5.0652 C.ar    1  LIG1        0.0327
     23 C          -3.2399    2.5760    1.0664 C.ar    1  LIG1        0.1621
     24 C          -1.1330    2.8629   -0.0963 C.ar    1  LIG1       -0.0157
     25 C           3.8914    2.5327    6.9474 C.3     1  LIG1       -0.0383
     26 C           2.5972   -3.4747   -0.9691 C.ar    1  LIG1       -0.0329
     27 C           3.5076   -2.2554    0.8763 C.ar    1  LIG1       -0.0329
     28 C          -3.1929    3.9233    1.4431 C.ar    1  LIG1       -0.0163
     29 C          -1.1090    4.2110    0.2673 C.ar    1  LIG1       -0.0581
     30 C          -2.1273    4.7356    1.0575 C.ar    1  LIG1       -0.0581
     31 C           3.7731   -4.2089   -0.9964 C.ar    1  LIG1        0.0282
     32 C           4.6453   -3.0392    0.7720 C.ar    1  LIG1        0.0282
     33 C          -1.7019   -2.4414   -2.4794 C.3     1  LIG1        0.0805
     34 C          -4.8424    0.8688    0.6781 C.3     1  LIG1        0.0790
     35 H           1.1842    1.1274    2.2740 H       1  LIG1        0.1754
     36 H          -0.6726    2.3512    5.8872 H       1  LIG1        0.0653
     37 H           1.2269    3.1770    7.2694 H       1  LIG1        0.0622
     38 H           3.8805    0.8512    4.7921 H       1  LIG1        0.0833
     39 H          -0.3243    2.4740   -0.7078 H       1  LIG1        0.0655
     40 H           3.6188    3.3449    7.6287 H       1  LIG1        0.0278
     41 H           4.6813    2.9065    6.2878 H       1  LIG1        0.0278
     42 H           4.2834    1.7016    7.5418 H       1  LIG1        0.0278
     43 H           1.8140   -3.6959   -1.6881 H       1  LIG1        0.0640
     44 H           3.4560   -1.4941    1.6499 H       1  LIG1        0.0640
     45 H          -3.9953    4.3356    2.0493 H       1  LIG1        0.0655
     46 H          -0.2864    4.8457   -0.0505 H       1  LIG1        0.0619
     47 H          -2.1001    5.7756    1.3687 H       1  LIG1        0.0619
     48 H           3.9206   -5.0001   -1.7261 H       1  LIG1        0.0830
     49 H           5.4834   -2.8987    1.4480 H       1  LIG1        0.0830
     50 H          -2.5823   -2.5332   -3.1225 H       1  LIG1        0.0660
     51 H          -1.6034   -3.3747   -1.9139 H       1  LIG1        0.0660
     52 H          -0.8330   -2.2805   -3.1271 H       1  LIG1        0.0660
     53 H          -5.9093    0.7452    0.8900 H       1  LIG1        0.0660
     54 H          -4.3509   -0.0766    0.9249 H       1  LIG1        0.0660
     55 H          -4.7457    1.1032   -0.3880 H       1  LIG1        0.0660
@<TRIPOS>BOND
     1     1     4    2
     2     1     5    2
     3     1     7    1
     4     1    14    1
     5     2    13    1
     6     2    19    1
     7     3    15    1
     8     3    33    1
     9     6    23    1
    10     6    34    1
    11     7    12    1
    12     8    12   ar
    13     8    16   ar
    14     9    15   ar
    15     9    16   ar
    16    10    14   ar
    17    10    22   ar
    18    11    31   ar
    19    11    32   ar
    20    12    13   ar
    21    13    15   ar
    22    14    17   ar
    23    16    18    1
    24    17    21   ar
    25    18    26   ar
    26    18    27   ar
    27    19    23   ar
    28    19    24   ar
    29    20    21   ar
    30    20    22   ar
    31    20    25    1
    32    23    28   ar
    33    24    29   ar
    34    26    31   ar
    35    27    32   ar
    36    28    30   ar
    37    29    30   ar
    38     7    35    1
    39    17    36    1
    40    21    37    1
    41    22    38    1
    42    24    39    1
    43    25    40    1
    44    25    41    1
    45    25    42    1
    46    26    43    1
    47    27    44    1
    48    28    45    1
    49    29    46    1
    50    30    47    1
    51    31    48    1
    52    32    49    1
    53    33    50    1
    54    33    51    1
    55    33    52    1
    56    34    53    1
    57    34    54    1
    58    34    55    1
@<TRIPOS>MOLECULE
9912992
 55 58 0 0 0
SMALL
GASTEIGER

@<TRIPOS>ATOM
      1 S          -0.6984    0.6455    3.4497 S.O2    1  LIG1        0.0908
      2 O          -2.1590    0.7367   -0.0104 O.3     1  LIG1       -0.4435
      3 O          -1.9266   -1.3331   -1.6562 O.3     1  LIG1       -0.4771
      4 O          -0.3123    1.6044    4.4657 O.2     1  LIG1       -0.1484
      5 O          -2.0912    0.4221    3.1228 O.2     1  LIG1       -0.1484
      6 O          -4.3780    1.9457    1.4502 O.3     1  LIG1       -0.4914
      7 N           0.1414    1.0492    2.0323 N.pl3   1  LIG1       -0.1950
      8 N           1.1574   -0.6210    0.9149 N.ar    1  LIG1       -0.2073
      9 N           0.2027   -1.8867   -0.8384 N.ar    1  LIG1       -0.1899
     10 N           1.3381   -1.0003    3.9370 N.ar    1  LIG1       -0.2351
     11 N           4.7862   -3.9701   -0.1549 N.ar    1  LIG1       -0.2632
     12 C           0.0406    0.1215    0.9596 C.ar    1  LIG1        0.1882
     13 C          -1.0232   -0.0174    0.0890 C.ar    1  LIG1        0.2307
     14 C          -0.0219   -0.9465    3.9149 C.ar    1  LIG1        0.1969
     15 C          -0.8814   -1.0848   -0.7809 C.ar    1  LIG1        0.2638
     16 C           1.2012   -1.6074    0.0089 C.ar    1  LIG1        0.1659
     17 C          -0.8715   -2.0309    4.0735 C.ar    1  LIG1       -0.0160
     18 C           2.4243   -2.4214   -0.0482 C.ar    1  LIG1        0.0222
     19 C          -2.1516    2.0655    0.3403 C.ar    1  LIG1        0.1702
     20 C           1.1057   -3.3921    4.2762 C.ar    1  LIG1       -0.0322
     21 C          -0.2876   -3.2773    4.2574 C.ar    1  LIG1       -0.0541
     22 C           1.8620   -2.2297    4.1302 C.ar    1  LIG1        0.0327
     23 C          -3.2216    2.5833    1.0846 C.ar    1  LIG1        0.1621
     24 C          -1.0952    2.9092   -0.0381 C.ar    1  LIG1       -0.0157
     25 C           1.7758   -4.7233    4.4124 C.3     1  LIG1       -0.0383
     26 C           2.5676   -3.4747   -0.9619 C.ar    1  LIG1       -0.0329
     27 C           3.5102   -2.1685    0.8061 C.ar    1  LIG1       -0.0329
     28 C          -3.1252    3.8852    1.5888 C.ar    1  LIG1       -0.0163
     29 C          -1.0198    4.2090    0.4611 C.ar    1  LIG1       -0.0581
     30 C          -2.0212    4.6880    1.2972 C.ar    1  LIG1       -0.0581
     31 C           3.7458   -4.2054   -0.9789 C.ar    1  LIG1        0.0282
     32 C           4.6475   -2.9540    0.7183 C.ar    1  LIG1        0.0282
     33 C          -1.7020   -2.4459   -2.5183 C.3     1  LIG1        0.0805
     34 C          -4.8139    0.8641    0.6380 C.3     1  LIG1        0.0790
     35 H           1.1246    1.1637    2.2930 H       1  LIG1        0.1754
     36 H          -1.9491   -1.9215    4.0264 H       1  LIG1        0.0653
     37 H          -0.9204   -4.1556    4.3663 H       1  LIG1        0.0622
     38 H           2.9480   -2.2657    4.1457 H       1  LIG1        0.0833
     39 H          -0.2967    2.5484   -0.6795 H       1  LIG1        0.0655
     40 H           1.0449   -5.5228    4.5715 H       1  LIG1        0.0278
     41 H           2.4609   -4.7192    5.2652 H       1  LIG1        0.0278
     42 H           2.3337   -4.9546    3.4995 H       1  LIG1        0.0278
     43 H           1.7748   -3.7259   -1.6599 H       1  LIG1        0.0640
     44 H           3.4760   -1.3632    1.5347 H       1  LIG1        0.0640
     45 H          -3.9180    4.2717    2.2242 H       1  LIG1        0.0655
     46 H          -0.1653    4.8365    0.2192 H       1  LIG1        0.0619
     47 H          -1.9526    5.6869    1.7200 H       1  LIG1        0.0619
     48 H           3.8862   -5.0227   -1.6807 H       1  LIG1        0.0830
     49 H           5.5009   -2.7765    1.3661 H       1  LIG1        0.0830
     50 H          -2.5842   -2.5615   -3.1548 H       1  LIG1        0.0660
     51 H          -1.5802   -3.3741   -1.9482 H       1  LIG1        0.0660
     52 H          -0.8401   -2.2716   -3.1720 H       1  LIG1        0.0660
     53 H          -5.8700    0.6848    0.8642 H       1  LIG1        0.0660
     54 H          -4.2731   -0.0537    0.8863 H       1  LIG1        0.0660
     55 H          -4.7444    1.0973   -0.4302 H       1  LIG1        0.0660
@<TRIPOS>BOND
     1     1     4    2
     2     1     5    2
     3     1     7    1
     4     1    14    1
     5     2    13    1
     6     2    19    1
     7     3    15    1
     8     3    33    1
     9     6    23    1
    10     6    34    1
    11     7    12    1
    12     8    12   ar
    13     8    16   ar
    14     9    15   ar
    15     9    16   ar
    16    10    14   ar
    17    10    22   ar
    18    11    31   ar
    19    11    32   ar
    20    12    13   ar
    21    13    15   ar
    22    14    17   ar
    23    16    18    1
    24    17    21   ar
    25    18    26   ar
    26    18    27   ar
    27    19    23   ar
    28    19    24   ar
    29    20    21   ar
    30    20    22   ar
    31    20    25    1
    32    23    28   ar
    33    24    29   ar
    34    26    31   ar
    35    27    32   ar
    36    28    30   ar
    37    29    30   ar
    38     7    35    1
    39    17    36    1
    40    21    37    1
    41    22    38    1
    42    24    39    1
    43    25    40    1
    44    25    41    1
    45    25    42    1
    46    26    43    1
    47    27    44    1
    48    28    45    1
    49    29    46    1
    50    30    47    1
    51    31    48    1
    52    32    49    1
    53    33    50    1
    54    33    51    1
    55    33    52    1
    56    34    53    1
    57    34    54    1
    58    34    55    1
@<TRIPOS>MOLECULE
9912992
 55 58 0 0 0
SMALL
GASTEIGER

@<TRIPOS>ATOM
      1 S          -0.8778    0.5106    3.3491 S.O2    1  LIG1        0.0908
      2 O          -2.1618    0.6311    0.1111 O.3     1  LIG1       -0.4435
      3 O          -1.7059   -1.3135   -1.9412 O.3     1  LIG1       -0.4771
      4 O          -0.5723    1.4741    4.3878 O.2     1  LIG1       -0.1484
      5 O          -2.2527    0.2429    2.9841 O.2     1  LIG1       -0.1484
      6 O          -4.1152    2.0960   -1.3341 O.3     1  LIG1       -0.4914
      7 N          -0.0186    0.9894    1.9676 N.pl3   1  LIG1       -0.1950
      8 N           1.1524   -0.6354    0.8982 N.ar    1  LIG1       -0.2073
      9 N           0.3545   -1.8346   -0.9850 N.ar    1  LIG1       -0.1899
     10 N           1.1159   -0.9642    4.3321 N.ar    1  LIG1       -0.2351
     11 N           4.8783   -3.9200   -0.0855 N.ar    1  LIG1       -0.2632
     12 C          -0.0002    0.0500    0.9018 C.ar    1  LIG1        0.1882
     13 C          -1.0490   -0.1568    0.0277 C.ar    1  LIG1        0.2307
     14 C          -0.1283   -1.0593    3.7939 C.ar    1  LIG1        0.1969
     15 C          -0.7880   -1.1165   -0.9312 C.ar    1  LIG1        0.2638
     16 C           1.2847   -1.5674   -0.0569 C.ar    1  LIG1        0.1659
     17 C          -0.8038   -2.2458    3.5505 C.ar    1  LIG1       -0.0160
     18 C           2.5207   -2.3652   -0.0712 C.ar    1  LIG1        0.0222
     19 C          -3.4042    0.0815   -0.1235 C.ar    1  LIG1        0.1702
     20 C           1.1187   -3.3868    4.4538 C.ar    1  LIG1       -0.0322
     21 C          -0.1564   -3.4293    3.8814 C.ar    1  LIG1       -0.0541
     22 C           1.6929   -2.1361    4.6762 C.ar    1  LIG1        0.0327
     23 C          -4.3393    0.8341   -0.8464 C.ar    1  LIG1        0.1621
     24 C          -3.7721   -1.1782    0.3712 C.ar    1  LIG1       -0.0157
     25 C           1.8101   -4.6446    4.8777 C.3     1  LIG1       -0.0383
     26 C           2.9006   -3.1077   -1.1988 C.ar    1  LIG1       -0.0329
     27 C           3.3675   -2.4212    1.0459 C.ar    1  LIG1       -0.0329
     28 C          -5.5802    0.2778   -1.1687 C.ar    1  LIG1       -0.0163
     29 C          -5.0241   -1.7172    0.0696 C.ar    1  LIG1       -0.0581
     30 C          -5.9223   -0.9952   -0.7129 C.ar    1  LIG1       -0.0581
     31 C           4.0682   -3.8530   -1.1606 C.ar    1  LIG1        0.0282
     32 C           4.5118   -3.2006    0.9933 C.ar    1  LIG1        0.0282
     33 C          -1.6488   -2.6195   -2.5032 C.3     1  LIG1        0.0805
     34 C          -3.6536    3.0102   -0.3397 C.3     1  LIG1        0.0790
     35 H           0.9321    1.2208    2.2567 H       1  LIG1        0.1754
     36 H          -1.7965   -2.2569    3.1146 H       1  LIG1        0.0653
     37 H          -0.6504   -4.3831    3.7018 H       1  LIG1        0.0622
     38 H           2.6678   -2.0415    5.1510 H       1  LIG1        0.0833
     39 H          -3.0906   -1.7514    0.9895 H       1  LIG1        0.0655
     40 H           1.6008   -5.4565    4.1737 H       1  LIG1        0.0278
     41 H           1.4676   -4.9416    5.8739 H       1  LIG1        0.0278
     42 H           2.8958   -4.5078    4.9042 H       1  LIG1        0.0278
     43 H           2.2995   -3.1023   -2.1041 H       1  LIG1        0.0640
     44 H           3.1389   -1.8686    1.9519 H       1  LIG1        0.0640
     45 H          -6.2876    0.8486   -1.7647 H       1  LIG1        0.0655
     46 H          -5.2977   -2.6998    0.4436 H       1  LIG1        0.0619
     47 H          -6.8940   -1.4163   -0.9586 H       1  LIG1        0.0619
     48 H           4.3903   -4.4318   -2.0214 H       1  LIG1        0.0830
     49 H           5.1825   -3.2671    1.8453 H       1  LIG1        0.0830
     50 H          -2.5241   -2.7431   -3.1498 H       1  LIG1        0.0660
     51 H          -1.6988   -3.3917   -1.7271 H       1  LIG1        0.0660
     52 H          -0.7538   -2.7438   -3.1212 H       1  LIG1        0.0660
     53 H          -4.0438    4.0011   -0.5926 H       1  LIG1        0.0660
     54 H          -2.5614    3.0689   -0.3622 H       1  LIG1        0.0660
     55 H          -4.0073    2.7611    0.6678 H       1  LIG1        0.0660
@<TRIPOS>BOND
     1     1     4    2
     2     1     5    2
     3     1     7    1
     4     1    14    1
     5     2    13    1
     6     2    19    1
     7     3    15    1
     8     3    33    1
     9     6    23    1
    10     6    34    1
    11     7    12    1
    12     8    12   ar
    13     8    16   ar
    14     9    15   ar
    15     9    16   ar
    16    10    14   ar
    17    10    22   ar
    18    11    31   ar
    19    11    32   ar
    20    12    13   ar
    21    13    15   ar
    22    14    17   ar
    23    16    18    1
    24    17    21   ar
    25    18    26   ar
    26    18    27   ar
    27    19    23   ar
    28    19    24   ar
    29    20    21   ar
    30    20    22   ar
    31    20    25    1
    32    23    28   ar
    33    24    29   ar
    34    26    31   ar
    35    27    32   ar
    36    28    30   ar
    37    29    30   ar
    38     7    35    1
    39    17    36    1
    40    21    37    1
    41    22    38    1
    42    24    39    1
    43    25    40    1
    44    25    41    1
    45    25    42    1
    46    26    43    1
    47    27    44    1
    48    28    45    1
    49    29    46    1
    50    30    47    1
    51    31    48    1
    52    32    49    1
    53    33    50    1
    54    33    51    1
    55    33    52    1
    56    34    53    1
    57    34    54    1
    58    34    55    1
@<TRIPOS>MOLECULE
9912992
 55 58 0 0 0
SMALL
GASTEIGER

@<TRIPOS>ATOM
      1 S          -0.4487    0.4583    3.5601 S.O2    1  LIG1        0.0908
      2 O          -2.1982    0.6711    0.1392 O.3     1  LIG1       -0.4435
      3 O          -1.9759   -1.3942   -1.5038 O.3     1  LIG1       -0.4771
      4 O          -1.7399    1.0580    3.8214 O.2     1  LIG1       -0.1484
      5 O          -0.2730   -0.9788    3.5956 O.2     1  LIG1       -0.1484
      6 O          -4.2769    1.9411    1.6306 O.3     1  LIG1       -0.4914
      7 N           0.1051    1.0812    2.0810 N.pl3   1  LIG1       -0.1950
      8 N           1.1784   -0.5915    0.9627 N.ar    1  LIG1       -0.2073
      9 N           0.1803   -1.9177   -0.7329 N.ar    1  LIG1       -0.1899
     10 N           0.9690    2.5100    4.4733 N.ar    1  LIG1       -0.2351
     11 N           4.7559   -4.0026   -0.1369 N.ar    1  LIG1       -0.2632
     12 C           0.0596    0.1538    1.0065 C.ar    1  LIG1        0.1882
     13 C          -1.0256   -0.0286    0.1710 C.ar    1  LIG1        0.2307
     14 C           0.7286    1.1870    4.6962 C.ar    1  LIG1        0.1969
     15 C          -0.9067   -1.1238   -0.6655 C.ar    1  LIG1        0.2638
     16 C           1.1947   -1.6090    0.0896 C.ar    1  LIG1        0.1659
     17 C           1.3694    0.4092    5.6456 C.ar    1  LIG1       -0.0160
     18 C           2.4118   -2.4329    0.0184 C.ar    1  LIG1        0.0222
     19 C          -2.2032    2.0358    0.2944 C.ar    1  LIG1        0.1702
     20 C           2.6089    2.3909    6.2527 C.ar    1  LIG1       -0.0322
     21 C           2.3260    1.0337    6.4404 C.ar    1  LIG1       -0.0541
     22 C           1.9021    3.0760    5.2655 C.ar    1  LIG1        0.0327
     23 C          -3.2205    2.6078    1.0705 C.ar    1  LIG1        0.1621
     24 C          -1.2240    2.8574   -0.2841 C.ar    1  LIG1       -0.0157
     25 C           3.6383    3.1013    7.0746 C.3     1  LIG1       -0.0383
     26 C           2.3956   -3.7186   -0.5415 C.ar    1  LIG1       -0.0329
     27 C           3.6409   -1.9628    0.5038 C.ar    1  LIG1       -0.0329
     28 C          -3.1579    3.9669    1.3885 C.ar    1  LIG1       -0.0163
     29 C          -1.1859    4.2196    0.0198 C.ar    1  LIG1       -0.0581
     30 C          -2.1399    4.7698    0.8744 C.ar    1  LIG1       -0.0581
     31 C           3.5702   -4.4531   -0.5928 C.ar    1  LIG1        0.0282
     32 C           4.7648   -2.7671    0.4018 C.ar    1  LIG1        0.0282
     33 C          -1.9002   -2.6737   -2.1242 C.3     1  LIG1        0.0805
     34 C          -4.8756    0.9421    0.8096 C.3     1  LIG1        0.0790
     35 H          -0.4249    1.9376    1.9306 H       1  LIG1        0.1754
     36 H           1.1456   -0.6460    5.7594 H       1  LIG1        0.0653
     37 H           2.8534    0.4568    7.1967 H       1  LIG1        0.0622
     38 H           2.0800    4.1321    5.0781 H       1  LIG1        0.0833
     39 H          -0.4659    2.4464   -0.9453 H       1  LIG1        0.0655
     40 H           4.1321    2.4193    7.7745 H       1  LIG1        0.0278
     41 H           3.1704    3.9023    7.6562 H       1  LIG1        0.0278
     42 H           4.4087    3.5302    6.4262 H       1  LIG1        0.0278
     43 H           1.4771   -4.1506   -0.9286 H       1  LIG1        0.0640
     44 H           3.7268   -0.9764    0.9505 H       1  LIG1        0.0640
     45 H          -3.9120    4.4002    2.0409 H       1  LIG1        0.0655
     46 H          -0.4051    4.8502   -0.3965 H       1  LIG1        0.0619
     47 H          -2.1007    5.8245    1.1327 H       1  LIG1        0.0619
     48 H           3.5853   -5.4536   -1.0147 H       1  LIG1        0.0830
     49 H           5.7311   -2.4242    0.7614 H       1  LIG1        0.0830
     50 H          -2.8191   -2.8195   -2.7007 H       1  LIG1        0.0660
     51 H          -1.8459   -3.4736   -1.3772 H       1  LIG1        0.0660
     52 H          -1.0573   -2.7284   -2.8211 H       1  LIG1        0.0660
     53 H          -5.9274    0.8579    1.1002 H       1  LIG1        0.0660
     54 H          -4.4068   -0.0301    0.9908 H       1  LIG1        0.0660
     55 H          -4.8478    1.2000   -0.2554 H       1  LIG1        0.0660
@<TRIPOS>BOND
     1     1     4    2
     2     1     5    2
     3     1     7    1
     4     1    14    1
     5     2    13    1
     6     2    19    1
     7     3    15    1
     8     3    33    1
     9     6    23    1
    10     6    34    1
    11     7    12    1
    12     8    12   ar
    13     8    16   ar
    14     9    15   ar
    15     9    16   ar
    16    10    14   ar
    17    10    22   ar
    18    11    31   ar
    19    11    32   ar
    20    12    13   ar
    21    13    15   ar
    22    14    17   ar
    23    16    18    1
    24    17    21   ar
    25    18    26   ar
    26    18    27   ar
    27    19    23   ar
    28    19    24   ar
    29    20    21   ar
    30    20    22   ar
    31    20    25    1
    32    23    28   ar
    33    24    29   ar
    34    26    31   ar
    35    27    32   ar
    36    28    30   ar
    37    29    30   ar
    38     7    35    1
    39    17    36    1
    40    21    37    1
    41    22    38    1
    42    24    39    1
    43    25    40    1
    44    25    41    1
    45    25    42    1
    46    26    43    1
    47    27    44    1
    48    28    45    1
    49    29    46    1
    50    30    47    1
    51    31    48    1
    52    32    49    1
    53    33    50    1
    54    33    51    1
    55    33    52    1
    56    34    53    1
    57    34    54    1
    58    34    55    1
@<TRIPOS>MOLECULE
9912992
 55 58 0 0 0
SMALL
GASTEIGER

@<TRIPOS>ATOM
      1 S          -0.5784    0.4301    3.5282 S.O2    1  LIG1        0.0908
      2 O          -2.1975    0.7258    0.0277 O.3     1  LIG1       -0.4435
      3 O          -1.8960   -1.3259   -1.6156 O.3     1  LIG1       -0.4771
      4 O          -1.4157    1.4375    4.1453 O.2     1  LIG1       -0.1484
      5 O          -1.0983   -0.9026    3.2744 O.2     1  LIG1       -0.1484
      6 O          -4.1663    1.8830    1.7388 O.3     1  LIG1       -0.4914
      7 N          -0.0193    1.1145    2.0859 N.pl3   1  LIG1       -0.1950
      8 N           1.1404   -0.5416    1.0089 N.ar    1  LIG1       -0.2073
      9 N           0.2282   -1.8412   -0.7601 N.ar    1  LIG1       -0.1899
     10 N           1.1892    1.3201    5.3089 N.ar    1  LIG1       -0.2351
     11 N           4.7576   -3.9468   -0.0090 N.ar    1  LIG1       -0.2632
     12 C           0.0270    0.2150    0.9895 C.ar    1  LIG1        0.1882
     13 C          -1.0187    0.0361    0.1007 C.ar    1  LIG1        0.2307
     14 C           0.9297    0.2745    4.4816 C.ar    1  LIG1        0.1969
     15 C          -0.8634   -1.0537   -0.7342 C.ar    1  LIG1        0.2638
     16 C           1.2018   -1.5411    0.1131 C.ar    1  LIG1        0.1659
     17 C           1.7064   -0.8686    4.3838 C.ar    1  LIG1       -0.0160
     18 C           2.4179   -2.3681    0.0825 C.ar    1  LIG1        0.0222
     19 C          -2.2124    2.0791    0.2504 C.ar    1  LIG1        0.1702
     20 C           3.1486    0.1101    6.0553 C.ar    1  LIG1       -0.0322
     21 C           2.8411   -0.9426    5.1869 C.ar    1  LIG1       -0.0541
     22 C           2.2870    1.2044    6.0831 C.ar    1  LIG1        0.0327
     23 C          -3.1804    2.6022    1.1184 C.ar    1  LIG1        0.1621
     24 C          -1.2817    2.9329   -0.3571 C.ar    1  LIG1       -0.0157
     25 C           4.3282    0.0498    6.9742 C.3     1  LIG1       -0.0383
     26 C           3.6334   -1.9032    0.6051 C.ar    1  LIG1       -0.0329
     27 C           2.4138   -3.6512   -0.4846 C.ar    1  LIG1       -0.0329
     28 C          -3.1205    3.9498    1.4767 C.ar    1  LIG1       -0.0163
     29 C          -1.2488    4.2850   -0.0130 C.ar    1  LIG1       -0.0581
     30 C          -2.1556    4.7885    0.9180 C.ar    1  LIG1       -0.0581
     31 C           4.7568   -2.7115    0.5313 C.ar    1  LIG1        0.0282
     32 C           3.5861   -4.3911   -0.5044 C.ar    1  LIG1        0.0282
     33 C          -1.8347   -2.6370   -2.1685 C.3     1  LIG1        0.0805
     34 C          -4.8374    0.9371    0.9088 C.3     1  LIG1        0.0790
     35 H          -0.5061    1.9984    1.9574 H       1  LIG1        0.1754
     36 H           1.4424   -1.6750    3.7078 H       1  LIG1        0.0653
     37 H           3.4758   -1.8249    5.1383 H       1  LIG1        0.0622
     38 H           2.4603    2.0410    6.7563 H       1  LIG1        0.0833
     39 H          -0.5626    2.5526   -1.0778 H       1  LIG1        0.0655
     40 H           5.0479   -0.7076    6.6469 H       1  LIG1        0.0278
     41 H           4.0009   -0.1982    7.9888 H       1  LIG1        0.0278
     42 H           4.8501    1.0121    6.9924 H       1  LIG1        0.0278
     43 H           3.7119   -0.9157    1.0508 H       1  LIG1        0.0640
     44 H           1.5076   -4.0775   -0.9049 H       1  LIG1        0.0640
     45 H          -3.8333    4.3464    2.1956 H       1  LIG1        0.0655
     46 H          -0.5091    4.9450   -0.4600 H       1  LIG1        0.0619
     47 H          -2.1205    5.8371    1.2053 H       1  LIG1        0.0619
     48 H           5.7148   -2.3728    0.9142 H       1  LIG1        0.0830
     49 H           3.6114   -5.3881   -0.9338 H       1  LIG1        0.0830
     50 H          -2.7437   -2.7930   -2.7572 H       1  LIG1        0.0660
     51 H          -1.8134   -3.3997   -1.3819 H       1  LIG1        0.0660
     52 H          -0.9777   -2.7427   -2.8416 H       1  LIG1        0.0660
     53 H          -5.8599    0.8307    1.2854 H       1  LIG1        0.0660
     54 H          -4.3560   -0.0426    0.9853 H       1  LIG1        0.0660
     55 H          -4.9020    1.2621   -0.1353 H       1  LIG1        0.0660
@<TRIPOS>BOND
     1     1     4    2
     2     1     5    2
     3     1     7    1
     4     1    14    1
     5     2    13    1
     6     2    19    1
     7     3    15    1
     8     3    33    1
     9     6    23    1
    10     6    34    1
    11     7    12    1
    12     8    12   ar
    13     8    16   ar
    14     9    15   ar
    15     9    16   ar
    16    10    14   ar
    17    10    22   ar
    18    11    31   ar
    19    11    32   ar
    20    12    13   ar
    21    13    15   ar
    22    14    17   ar
    23    16    18    1
    24    17    21   ar
    25    18    26   ar
    26    18    27   ar
    27    19    23   ar
    28    19    24   ar
    29    20    21   ar
    30    20    22   ar
    31    20    25    1
    32    23    28   ar
    33    24    29   ar
    34    26    31   ar
    35    27    32   ar
    36    28    30   ar
    37    29    30   ar
    38     7    35    1
    39    17    36    1
    40    21    37    1
    41    22    38    1
    42    24    39    1
    43    25    40    1
    44    25    41    1
    45    25    42    1
    46    26    43    1
    47    27    44    1
    48    28    45    1
    49    29    46    1
    50    30    47    1
    51    31    48    1
    52    32    49    1
    53    33    50    1
    54    33    51    1
    55    33    52    1
    56    34    53    1
    57    34    54    1
    58    34    55    1
@<TRIPOS>MOLECULE
9912992
 55 58 0 0 0
SMALL
GASTEIGER

@<TRIPOS>ATOM
      1 S          -0.4488    0.4360    3.5501 S.O2    1  LIG1        0.0908
      2 O          -2.1724    0.6949    0.0906 O.3     1  LIG1       -0.4435
      3 O          -1.8848   -1.2893   -1.6407 O.3     1  LIG1       -0.4771
      4 O          -1.7467    1.0192    3.8176 O.2     1  LIG1       -0.1484
      5 O          -0.2592   -1.0020    3.5765 O.2     1  LIG1       -0.1484
      6 O          -4.2622    1.9345    1.6034 O.3     1  LIG1       -0.4914
      7 N           0.0932    1.0760    2.0770 N.pl3   1  LIG1       -0.1950
      8 N           1.1891   -0.5805    0.9554 N.ar    1  LIG1       -0.2073
      9 N           0.2434   -1.8474   -0.8149 N.ar    1  LIG1       -0.1899
     10 N           0.9555    2.4952    4.4668 N.ar    1  LIG1       -0.2351
     11 N           4.7706   -3.9967   -0.1177 N.ar    1  LIG1       -0.2632
     12 C           0.0685    0.1625    0.9916 C.ar    1  LIG1        0.1882
     13 C          -0.9952    0.0016    0.1241 C.ar    1  LIG1        0.2307
     14 C           0.7196    1.1709    4.6903 C.ar    1  LIG1        0.1969
     15 C          -0.8441   -1.0545   -0.7565 C.ar    1  LIG1        0.2638
     16 C           1.2290   -1.5720    0.0532 C.ar    1  LIG1        0.1659
     17 C           1.3628    0.3969    5.6410 C.ar    1  LIG1       -0.0160
     18 C           2.4395   -2.4054    0.0011 C.ar    1  LIG1        0.0222
     19 C          -2.1845    2.0561    0.2709 C.ar    1  LIG1        0.1702
     20 C           2.5960    2.3841    6.2461 C.ar    1  LIG1       -0.0322
     21 C           2.3168    1.0258    6.4355 C.ar    1  LIG1       -0.0541
     22 C           1.8867    3.0653    5.2586 C.ar    1  LIG1        0.0327
     23 C          -3.2069    2.6118    1.0529 C.ar    1  LIG1        0.1621
     24 C          -1.2056    2.8899   -0.2896 C.ar    1  LIG1       -0.0157
     25 C           3.6236    3.0979    7.0667 C.3     1  LIG1       -0.0383
     26 C           2.4181   -3.6940   -0.5523 C.ar    1  LIG1       -0.0329
     27 C           3.6662   -1.9435    0.4994 C.ar    1  LIG1       -0.0329
     28 C          -3.1506    3.9665    1.3900 C.ar    1  LIG1       -0.0163
     29 C          -1.1746    4.2474    0.0341 C.ar    1  LIG1       -0.0581
     30 C          -2.1341    4.7807    0.8914 C.ar    1  LIG1       -0.0581
     31 C           3.5862   -4.4393   -0.5849 C.ar    1  LIG1        0.0282
     32 C           4.7840   -2.7582    0.4149 C.ar    1  LIG1        0.0282
     33 C          -1.6780   -2.4196   -2.4818 C.3     1  LIG1        0.0805
     34 C          -4.8443    0.9269    0.7814 C.3     1  LIG1        0.0790
     35 H          -0.4430    1.9295    1.9339 H       1  LIG1        0.1754
     36 H           1.1425   -0.6589    5.7550 H       1  LIG1        0.0653
     37 H           2.8459    0.4514    7.1924 H       1  LIG1        0.0622
     38 H           2.0619    4.1219    5.0695 H       1  LIG1        0.0833
     39 H          -0.4424    2.4913   -0.9528 H       1  LIG1        0.0655
     40 H           4.1198    2.4183    7.7671 H       1  LIG1        0.0278
     41 H           3.1546    3.8987    7.6470 H       1  LIG1        0.0278
     42 H           4.3931    3.5277    6.4170 H       1  LIG1        0.0278
     43 H           1.5001   -4.1200   -0.9461 H       1  LIG1        0.0640
     44 H           3.7546   -0.9556    0.9423 H       1  LIG1        0.0640
     45 H          -3.9093    4.3873    2.0460 H       1  LIG1        0.0655
     46 H          -0.3934    4.8873   -0.3694 H       1  LIG1        0.0619
     47 H          -2.1012    5.8324    1.1653 H       1  LIG1        0.0619
     48 H           3.5973   -5.4430   -1.0002 H       1  LIG1        0.0830
     49 H           5.7489   -2.4223    0.7839 H       1  LIG1        0.0830
     50 H          -2.5572   -2.5217   -3.1253 H       1  LIG1        0.0660
     51 H          -1.5866   -3.3398   -1.8942 H       1  LIG1        0.0660
     52 H          -0.8062   -2.2778   -3.1298 H       1  LIG1        0.0660
     53 H          -5.8953    0.8279    1.0701 H       1  LIG1        0.0660
     54 H          -4.3625   -0.0382    0.9637 H       1  LIG1        0.0660
     55 H          -4.8188    1.1856   -0.2834 H       1  LIG1        0.0660
@<TRIPOS>BOND
     1     1     4    2
     2     1     5    2
     3     1     7    1
     4     1    14    1
     5     2    13    1
     6     2    19    1
     7     3    15    1
     8     3    33    1
     9     6    23    1
    10     6    34    1
    11     7    12    1
    12     8    12   ar
    13     8    16   ar
    14     9    15   ar
    15     9    16   ar
    16    10    14   ar
    17    10    22   ar
    18    11    31   ar
    19    11    32   ar
    20    12    13   ar
    21    13    15   ar
    22    14    17   ar
    23    16    18    1
    24    17    21   ar
    25    18    26   ar
    26    18    27   ar
    27    19    23   ar
    28    19    24   ar
    29    20    21   ar
    30    20    22   ar
    31    20    25    1
    32    23    28   ar
    33    24    29   ar
    34    26    31   ar
    35    27    32   ar
    36    28    30   ar
    37    29    30   ar
    38     7    35    1
    39    17    36    1
    40    21    37    1
    41    22    38    1
    42    24    39    1
    43    25    40    1
    44    25    41    1
    45    25    42    1
    46    26    43    1
    47    27    44    1
    48    28    45    1
    49    29    46    1
    50    30    47    1
    51    31    48    1
    52    32    49    1
    53    33    50    1
    54    33    51    1
    55    33    52    1
    56    34    53    1
    57    34    54    1
    58    34    55    1
@<TRIPOS>MOLECULE
9912992
 55 58 0 0 0
SMALL
GASTEIGER

@<TRIPOS>ATOM
      1 S          -0.5385    0.6171    3.4753 S.O2    1  LIG1        0.0908
      2 O          -2.2078    0.6793    0.1230 O.3     1  LIG1       -0.4435
      3 O          -1.9102   -1.3235   -1.6065 O.3     1  LIG1       -0.4771
      4 O          -1.6904    1.4260    3.8105 O.2     1  LIG1       -0.1484
      5 O          -0.5862   -0.8304    3.5034 O.2     1  LIG1       -0.1484
      6 O          -4.3209    1.8995    1.6333 O.3     1  LIG1       -0.4914
      7 N           0.0976    1.1653    1.9939 N.pl3   1  LIG1       -0.1950
      8 N           1.2066   -0.5025    0.9151 N.ar    1  LIG1       -0.2073
      9 N           0.2519   -1.8137   -0.8200 N.ar    1  LIG1       -0.1899
     10 N           1.8959    1.5743    3.9508 N.ar    1  LIG1       -0.2351
     11 N           4.7859   -3.9571   -0.0615 N.ar    1  LIG1       -0.2632
     12 C           0.0648    0.2034    0.9571 C.ar    1  LIG1        0.1882
     13 C          -1.0223    0.0008    0.1321 C.ar    1  LIG1        0.2307
     14 C           0.7751    1.1231    4.5903 C.ar    1  LIG1        0.1969
     15 C          -0.8609   -1.0545   -0.7431 C.ar    1  LIG1        0.2638
     16 C           1.2471   -1.5117    0.0304 C.ar    1  LIG1        0.1659
     17 C           0.5581    1.1535    5.9559 C.ar    1  LIG1       -0.0160
     18 C           2.4604   -2.3480   -0.0035 C.ar    1  LIG1        0.0222
     19 C          -2.2315    2.0409    0.3170 C.ar    1  LIG1        0.1702
     20 C           2.7552    2.1419    6.1458 C.ar    1  LIG1       -0.0322
     21 C           1.5795    1.6725    6.7452 C.ar    1  LIG1       -0.0541
     22 C           2.8576    2.0717    4.7569 C.ar    1  LIG1        0.0327
     23 C          -3.2731    2.5888    1.0799 C.ar    1  LIG1        0.1621
     24 C          -1.2712    2.8912   -0.2515 C.ar    1  LIG1       -0.0157
     25 C           3.8593    2.7483    6.9547 C.3     1  LIG1       -0.0383
     26 C           2.6125   -3.3857   -0.9359 C.ar    1  LIG1       -0.0329
     27 C           3.5137   -2.1494    0.9024 C.ar    1  LIG1       -0.0329
     28 C          -3.2578    3.9538    1.3837 C.ar    1  LIG1       -0.0163
     29 C          -1.2809    4.2575    0.0367 C.ar    1  LIG1       -0.0581
     30 C          -2.2627    4.7854    0.8708 C.ar    1  LIG1       -0.0581
     31 C           3.7702   -4.1482   -0.9263 C.ar    1  LIG1        0.0282
     32 C           4.6336   -2.9635    0.8362 C.ar    1  LIG1        0.0282
     33 C          -1.6841   -2.4455   -2.4527 C.3     1  LIG1        0.0805
     34 C          -4.8856    0.8826    0.8122 C.3     1  LIG1        0.0790
     35 H           1.0678    1.4441    2.1814 H       1  LIG1        0.1754
     36 H          -0.3748    0.8081    6.3875 H       1  LIG1        0.0653
     37 H           1.4496    1.7238    7.8240 H       1  LIG1        0.0622
     38 H           3.7436    2.4375    4.2425 H       1  LIG1        0.0833
     39 H          -0.4939    2.4999   -0.9011 H       1  LIG1        0.0655
     40 H           3.6994    2.5967    8.0270 H       1  LIG1        0.0278
     41 H           3.9141    3.8255    6.7669 H       1  LIG1        0.0278
     42 H           4.8186    2.2895    6.6941 H       1  LIG1        0.0278
     43 H           1.8378   -3.6050   -1.6645 H       1  LIG1        0.0640
     44 H           3.4647   -1.3732    1.6608 H       1  LIG1        0.0640
     45 H          -4.0327    4.3679    2.0239 H       1  LIG1        0.0655
     46 H          -0.5141    4.9066   -0.3776 H       1  LIG1        0.0619
     47 H          -2.2619    5.8436    1.1173 H       1  LIG1        0.0619
     48 H           3.9118   -4.9577   -1.6366 H       1  LIG1        0.0830
     49 H           5.4609   -2.8322    1.5277 H       1  LIG1        0.0830
     50 H          -2.5699   -2.5722   -3.0826 H       1  LIG1        0.0660
     51 H          -1.5560   -3.3634   -1.8686 H       1  LIG1        0.0660
     52 H          -0.8273   -2.2774   -3.1145 H       1  LIG1        0.0660
     53 H          -5.9354    0.7688    1.1001 H       1  LIG1        0.0660
     54 H          -4.3903   -0.0750    0.9968 H       1  LIG1        0.0660
     55 H          -4.8633    1.1406   -0.2528 H       1  LIG1        0.0660
@<TRIPOS>BOND
     1     1     4    2
     2     1     5    2
     3     1     7    1
     4     1    14    1
     5     2    13    1
     6     2    19    1
     7     3    15    1
     8     3    33    1
     9     6    23    1
    10     6    34    1
    11     7    12    1
    12     8    12   ar
    13     8    16   ar
    14     9    15   ar
    15     9    16   ar
    16    10    14   ar
    17    10    22   ar
    18    11    31   ar
    19    11    32   ar
    20    12    13   ar
    21    13    15   ar
    22    14    17   ar
    23    16    18    1
    24    17    21   ar
    25    18    26   ar
    26    18    27   ar
    27    19    23   ar
    28    19    24   ar
    29    20    21   ar
    30    20    22   ar
    31    20    25    1
    32    23    28   ar
    33    24    29   ar
    34    26    31   ar
    35    27    32   ar
    36    28    30   ar
    37    29    30   ar
    38     7    35    1
    39    17    36    1
    40    21    37    1
    41    22    38    1
    42    24    39    1
    43    25    40    1
    44    25    41    1
    45    25    42    1
    46    26    43    1
    47    27    44    1
    48    28    45    1
    49    29    46    1
    50    30    47    1
    51    31    48    1
    52    32    49    1
    53    33    50    1
    54    33    51    1
    55    33    52    1
    56    34    53    1
    57    34    54    1
    58    34    55    1
@<TRIPOS>MOLECULE
9912992
 55 58 0 0 0
SMALL
GASTEIGER

@<TRIPOS>ATOM
      1 S          -0.4834    0.4331    3.5644 S.O2    1  LIG1        0.0908
      2 O          -2.1702    0.7079    0.0665 O.3     1  LIG1       -0.4435
      3 O          -1.8528   -1.2406   -1.6980 O.3     1  LIG1       -0.4771
      4 O          -1.7792    1.0249    3.8225 O.2     1  LIG1       -0.1484
      5 O          -0.2984   -1.0043    3.6011 O.2     1  LIG1       -0.1484
      6 O          -4.2712    1.9347    1.5830 O.3     1  LIG1       -0.4914
      7 N           0.0683    1.0603    2.0899 N.pl3   1  LIG1       -0.1950
      8 N           1.1609   -0.6094    0.9844 N.ar    1  LIG1       -0.2073
      9 N           0.2613   -1.8152   -0.8487 N.ar    1  LIG1       -0.1899
     10 N           0.9318    2.4929    4.4655 N.ar    1  LIG1       -0.2351
     11 N           4.7780   -3.9962   -0.0988 N.ar    1  LIG1       -0.2632
     12 C           0.0486    0.1468    1.0051 C.ar    1  LIG1        0.1882
     13 C          -0.9963    0.0098    0.1117 C.ar    1  LIG1        0.2307
     14 C           0.6861    1.1725    4.7010 C.ar    1  LIG1        0.1969
     15 C          -0.8295   -1.0269   -0.7884 C.ar    1  LIG1        0.2638
     16 C           1.2251   -1.5733    0.0537 C.ar    1  LIG1        0.1659
     17 C           1.3266    0.4010    5.6558 C.ar    1  LIG1       -0.0160
     18 C           2.4386   -2.4090    0.0064 C.ar    1  LIG1        0.0222
     19 C          -2.1804    2.0658    0.2690 C.ar    1  LIG1        0.1702
     20 C           2.5798    2.3823    6.2378 C.ar    1  LIG1       -0.0322
     21 C           2.2896    1.0282    6.4410 C.ar    1  LIG1       -0.0541
     22 C           1.8713    3.0619    5.2485 C.ar    1  LIG1        0.0327
     23 C          -3.2074    2.6132    1.0510 C.ar    1  LIG1        0.1621
     24 C          -1.1928    2.9034   -0.2700 C.ar    1  LIG1       -0.0157
     25 C           3.6183    3.0935    7.0471 C.3     1  LIG1       -0.0383
     26 C           2.5840   -3.4423   -0.9321 C.ar    1  LIG1       -0.0329
     27 C           3.5052   -2.2044    0.8947 C.ar    1  LIG1       -0.0329
     28 C          -3.1475    3.9625    1.4090 C.ar    1  LIG1       -0.0163
     29 C          -1.1578    4.2551    0.0753 C.ar    1  LIG1       -0.0581
     30 C          -2.1223    4.7795    0.9323 C.ar    1  LIG1       -0.0581
     31 C           3.7488   -4.1939   -0.9459 C.ar    1  LIG1        0.0282
     32 C           4.6321   -3.0067    0.8048 C.ar    1  LIG1        0.0282
     33 C          -1.6656   -2.3964   -2.5084 C.3     1  LIG1        0.0805
     34 C          -4.8383    0.9224    0.7566 C.3     1  LIG1        0.0790
     35 H          -0.4554    1.9201    1.9410 H       1  LIG1        0.1754
     36 H           1.0987   -0.6522    5.7792 H       1  LIG1        0.0653
     37 H           2.8176    0.4558    7.2005 H       1  LIG1        0.0622
     38 H           2.0542    4.1153    5.0507 H       1  LIG1        0.0833
     39 H          -0.4255    2.5106   -0.9324 H       1  LIG1        0.0655
     40 H           4.1201    2.4130    7.7429 H       1  LIG1        0.0278
     41 H           3.1580    3.8964    7.6315 H       1  LIG1        0.0278
     42 H           4.3825    3.5202    6.3892 H       1  LIG1        0.0278
     43 H           1.7999   -3.6647   -1.6496 H       1  LIG1        0.0640
     44 H           3.4635   -1.4269    1.6523 H       1  LIG1        0.0640
     45 H          -3.9095    4.3770    2.0649 H       1  LIG1        0.0655
     46 H          -0.3697    4.8973   -0.3114 H       1  LIG1        0.0619
     47 H          -2.0866    5.8263    1.2230 H       1  LIG1        0.0619
     48 H           3.8861   -4.9983   -1.6628 H       1  LIG1        0.0830
     49 H           5.4721   -2.8666    1.4792 H       1  LIG1        0.0830
     50 H          -2.5423   -2.4953   -3.1558 H       1  LIG1        0.0660
     51 H          -1.5989   -3.3035   -1.8975 H       1  LIG1        0.0660
     52 H          -0.7861   -2.2902   -3.1526 H       1  LIG1        0.0660
     53 H          -5.8911    0.8166    1.0351 H       1  LIG1        0.0660
     54 H          -4.3519   -0.0392    0.9448 H       1  LIG1        0.0660
     55 H          -4.8045    1.1810   -0.3080 H       1  LIG1        0.0660
@<TRIPOS>BOND
     1     1     4    2
     2     1     5    2
     3     1     7    1
     4     1    14    1
     5     2    13    1
     6     2    19    1
     7     3    15    1
     8     3    33    1
     9     6    23    1
    10     6    34    1
    11     7    12    1
    12     8    12   ar
    13     8    16   ar
    14     9    15   ar
    15     9    16   ar
    16    10    14   ar
    17    10    22   ar
    18    11    31   ar
    19    11    32   ar
    20    12    13   ar
    21    13    15   ar
    22    14    17   ar
    23    16    18    1
    24    17    21   ar
    25    18    26   ar
    26    18    27   ar
    27    19    23   ar
    28    19    24   ar
    29    20    21   ar
    30    20    22   ar
    31    20    25    1
    32    23    28   ar
    33    24    29   ar
    34    26    31   ar
    35    27    32   ar
    36    28    30   ar
    37    29    30   ar
    38     7    35    1
    39    17    36    1
    40    21    37    1
    41    22    38    1
    42    24    39    1
    43    25    40    1
    44    25    41    1
    45    25    42    1
    46    26    43    1
    47    27    44    1
    48    28    45    1
    49    29    46    1
    50    30    47    1
    51    31    48    1
    52    32    49    1
    53    33    50    1
    54    33    51    1
    55    33    52    1
    56    34    53    1
    57    34    54    1
    58    34    55    1
@<TRIPOS>MOLECULE
9912992
 55 58 0 0 0
SMALL
GASTEIGER

@<TRIPOS>ATOM
      1 S          -0.4465    0.4459    3.6012 S.O2    1  LIG1        0.0908
      2 O          -2.1801    0.6829    0.1466 O.3     1  LIG1       -0.4435
      3 O          -1.8761   -1.2545   -1.6321 O.3     1  LIG1       -0.4771
      4 O          -1.7353    1.0459    3.8650 O.2     1  LIG1       -0.1484
      5 O          -0.2735   -0.9936    3.6411 O.2     1  LIG1       -0.1484
      6 O          -4.2728    1.9637    1.7682 O.3     1  LIG1       -0.4914
      7 N           0.1034    1.0575    2.1213 N.pl3   1  LIG1       -0.1950
      8 N           1.1772   -0.6129    1.0022 N.ar    1  LIG1       -0.2073
      9 N           0.2530   -1.8216   -0.8162 N.ar    1  LIG1       -0.1899
     10 N           0.9890    2.4941    4.4884 N.ar    1  LIG1       -0.2351
     11 N           4.7754   -4.0078   -0.1168 N.ar    1  LIG1       -0.2632
     12 C           0.0638    0.1412    1.0391 C.ar    1  LIG1        0.1882
     13 C          -0.9976   -0.0035    0.1665 C.ar    1  LIG1        0.2307
     14 C           0.7368    1.1766    4.7286 C.ar    1  LIG1        0.1969
     15 C          -0.8395   -1.0371   -0.7392 C.ar    1  LIG1        0.2638
     16 C           1.2291   -1.5780    0.0718 C.ar    1  LIG1        0.1659
     17 C           1.3729    0.4046    5.6860 C.ar    1  LIG1       -0.0160
     18 C           2.4408   -2.4153    0.0115 C.ar    1  LIG1        0.0222
     19 C          -2.2040    2.0372    0.3669 C.ar    1  LIG1        0.1702
     20 C           2.6348    2.3821    6.2622 C.ar    1  LIG1       -0.0322
     21 C           2.3383    1.0303    6.4696 C.ar    1  LIG1       -0.0541
     22 C           1.9304    3.0616    5.2699 C.ar    1  LIG1        0.0327
     23 C          -3.2142    2.5890    1.1683 C.ar    1  LIG1        0.1621
     24 C          -1.2453    2.8775   -0.2272 C.ar    1  LIG1       -0.0157
     25 C           3.6735    3.0925    7.0721 C.3     1  LIG1       -0.0383
     26 C           2.5768   -3.4454   -0.9321 C.ar    1  LIG1       -0.0329
     27 C           3.5145   -2.2166    0.8926 C.ar    1  LIG1       -0.0329
     28 C          -3.1821    3.9638    1.4380 C.ar    1  LIG1       -0.0163
     29 C          -1.2262    4.2426    0.0595 C.ar    1  LIG1       -0.0581
     30 C          -2.1878    4.7838    0.9046 C.ar    1  LIG1       -0.0581
     31 C           3.7397   -4.1997   -0.9573 C.ar    1  LIG1        0.0282
     32 C           4.6386   -3.0213    0.7914 C.ar    1  LIG1        0.0282
     33 C          -1.6778   -2.3823   -2.4784 C.3     1  LIG1        0.0805
     34 C          -4.4322    0.5615    1.6176 C.3     1  LIG1        0.0790
     35 H          -0.4030    1.9281    1.9700 H       1  LIG1        0.1754
     36 H           1.1386   -0.6465    5.8141 H       1  LIG1        0.0653
     37 H           2.8621    0.4584    7.2318 H       1  LIG1        0.0622
     38 H           2.1178    4.1138    5.0686 H       1  LIG1        0.0833
     39 H          -0.4935    2.4771   -0.9028 H       1  LIG1        0.0655
     40 H           4.1777    2.4099    7.7639 H       1  LIG1        0.0278
     41 H           3.2126    3.8922    7.6602 H       1  LIG1        0.0278
     42 H           4.4358    3.5230    6.4145 H       1  LIG1        0.0278
     43 H           1.7869   -3.6633   -1.6447 H       1  LIG1        0.0640
     44 H           3.4803   -1.4421    1.6536 H       1  LIG1        0.0640
     45 H          -3.9450    4.3975    2.0820 H       1  LIG1        0.0655
     46 H          -0.4615    4.8824   -0.3742 H       1  LIG1        0.0619
     47 H          -2.1778    5.8450    1.1411 H       1  LIG1        0.0619
     48 H           3.8699   -5.0017   -1.6783 H       1  LIG1        0.0830
     49 H           5.4838   -2.8862    1.4603 H       1  LIG1        0.0830
     50 H          -2.5577   -2.4753   -3.1220 H       1  LIG1        0.0660
     51 H          -1.5924   -3.3057   -1.8951 H       1  LIG1        0.0660
     52 H          -0.8050   -2.2437   -3.1259 H       1  LIG1        0.0660
     53 H          -5.3366    0.2705    2.1611 H       1  LIG1        0.0660
     54 H          -3.5977    0.0141    2.0652 H       1  LIG1        0.0660
     55 H          -4.5832    0.2877    0.5686 H       1  LIG1        0.0660
@<TRIPOS>BOND
     1     1     4    2
     2     1     5    2
     3     1     7    1
     4     1    14    1
     5     2    13    1
     6     2    19    1
     7     3    15    1
     8     3    33    1
     9     6    23    1
    10     6    34    1
    11     7    12    1
    12     8    12   ar
    13     8    16   ar
    14     9    15   ar
    15     9    16   ar
    16    10    14   ar
    17    10    22   ar
    18    11    31   ar
    19    11    32   ar
    20    12    13   ar
    21    13    15   ar
    22    14    17   ar
    23    16    18    1
    24    17    21   ar
    25    18    26   ar
    26    18    27   ar
    27    19    23   ar
    28    19    24   ar
    29    20    21   ar
    30    20    22   ar
    31    20    25    1
    32    23    28   ar
    33    24    29   ar
    34    26    31   ar
    35    27    32   ar
    36    28    30   ar
    37    29    30   ar
    38     7    35    1
    39    17    36    1
    40    21    37    1
    41    22    38    1
    42    24    39    1
    43    25    40    1
    44    25    41    1
    45    25    42    1
    46    26    43    1
    47    27    44    1
    48    28    45    1
    49    29    46    1
    50    30    47    1
    51    31    48    1
    52    32    49    1
    53    33    50    1
    54    33    51    1
    55    33    52    1
    56    34    53    1
    57    34    54    1
    58    34    55    1
@<TRIPOS>MOLECULE
9912992
 55 58 0 0 0
SMALL
GASTEIGER

@<TRIPOS>ATOM
      1 S          -0.5944    0.8662    3.1706 S.O2    1  LIG1        0.0908
      2 O          -2.2667    0.5507    0.1271 O.3     1  LIG1       -0.4435
      3 O          -2.1925   -1.9317   -1.2618 O.3     1  LIG1       -0.4771
      4 O           0.4443    1.2439    4.1131 O.2     1  LIG1       -0.1484
      5 O          -1.8909    1.5083    3.2240 O.2     1  LIG1       -0.1484
      6 O          -5.2316    0.4671    0.0021 O.3     1  LIG1       -0.4914
      7 N           0.0838    1.1675    1.6393 N.pl3   1  LIG1       -0.1950
      8 N           1.1433   -0.5833    0.6831 N.ar    1  LIG1       -0.2073
      9 N           0.0728   -2.1756   -0.7093 N.ar    1  LIG1       -0.1899
     10 N          -2.0338   -1.3596    2.9132 N.ar    1  LIG1       -0.2351
     11 N           4.7716   -4.0094   -0.1312 N.ar    1  LIG1       -0.2632
     12 C          -0.0085    0.1044    0.7081 C.ar    1  LIG1        0.1882
     13 C          -1.1541   -0.2349    0.0235 C.ar    1  LIG1        0.2307
     14 C          -0.8124   -0.9139    3.3073 C.ar    1  LIG1        0.1969
     15 C          -1.0570   -1.4340   -0.6554 C.ar    1  LIG1        0.2638
     16 C           1.1424   -1.7079   -0.0481 C.ar    1  LIG1        0.1659
     17 C           0.2205   -1.7274    3.7440 C.ar    1  LIG1       -0.0160
     18 C           2.3858   -2.4956   -0.0827 C.ar    1  LIG1        0.0222
     19 C          -2.9761    0.8380   -1.0196 C.ar    1  LIG1        0.1702
     20 C          -1.2488   -3.6057    3.3405 C.ar    1  LIG1       -0.0322
     21 C          -0.0094   -3.1015    3.7519 C.ar    1  LIG1       -0.0541
     22 C          -2.2253   -2.6933    2.9552 C.ar    1  LIG1        0.0327
     23 C          -4.3785    0.7907   -1.0185 C.ar    1  LIG1        0.1621
     24 C          -2.2951    1.2464   -2.1819 C.ar    1  LIG1       -0.0157
     25 C          -1.5463   -5.0718    3.3742 C.3     1  LIG1       -0.0383
     26 C           3.5989   -1.9709    0.3913 C.ar    1  LIG1       -0.0329
     27 C           2.4120   -3.8046   -0.5849 C.ar    1  LIG1       -0.0329
     28 C          -5.0643    1.0985   -2.2035 C.ar    1  LIG1       -0.0163
     29 C          -2.9950    1.5429   -3.3518 C.ar    1  LIG1       -0.0581
     30 C          -4.3820    1.4629   -3.3645 C.ar    1  LIG1       -0.0581
     31 C           4.7444   -2.7496    0.3450 C.ar    1  LIG1        0.0282
     32 C           3.6059   -4.5090   -0.5872 C.ar    1  LIG1        0.0282
     33 C          -1.9757   -3.1121   -2.0245 C.3     1  LIG1        0.0805
     34 C          -4.6872    0.1582    1.2760 C.3     1  LIG1        0.0790
     35 H           1.0596    1.4213    1.7854 H       1  LIG1        0.1754
     36 H           1.1783   -1.3178    4.0453 H       1  LIG1        0.0653
     37 H           0.7792   -3.7774    4.0757 H       1  LIG1        0.0622
     38 H          -3.2183   -3.0201    2.6550 H       1  LIG1        0.0833
     39 H          -1.2129    1.3398   -2.1878 H       1  LIG1        0.0655
     40 H          -0.6442   -5.6579    3.1714 H       1  LIG1        0.0278
     41 H          -2.2844   -5.3380    2.6096 H       1  LIG1        0.0278
     42 H          -1.9401   -5.3526    4.3556 H       1  LIG1        0.0278
     43 H           3.6609   -0.9621    0.7890 H       1  LIG1        0.0640
     44 H           1.5130   -4.2784   -0.9675 H       1  LIG1        0.0640
     45 H          -6.1515    1.0551   -2.2154 H       1  LIG1        0.0655
     46 H          -2.4582    1.8414   -4.2483 H       1  LIG1        0.0619
     47 H          -4.9373    1.6943   -4.2694 H       1  LIG1        0.0619
     48 H           5.6970   -2.3664    0.7008 H       1  LIG1        0.0830
     49 H           3.6550   -5.5256   -0.9672 H       1  LIG1        0.0830
     50 H          -2.9239   -3.3818   -2.4992 H       1  LIG1        0.0660
     51 H          -1.6749   -3.9469   -1.3822 H       1  LIG1        0.0660
     52 H          -1.2409   -2.9430   -2.8193 H       1  LIG1        0.0660
     53 H          -5.5229   -0.0375    1.9551 H       1  LIG1        0.0660
     54 H          -4.1274    1.0028    1.6864 H       1  LIG1        0.0660
     55 H          -4.0910   -0.7561    1.2270 H       1  LIG1        0.0660
@<TRIPOS>BOND
     1     1     4    2
     2     1     5    2
     3     1     7    1
     4     1    14    1
     5     2    13    1
     6     2    19    1
     7     3    15    1
     8     3    33    1
     9     6    23    1
    10     6    34    1
    11     7    12    1
    12     8    12   ar
    13     8    16   ar
    14     9    15   ar
    15     9    16   ar
    16    10    14   ar
    17    10    22   ar
    18    11    31   ar
    19    11    32   ar
    20    12    13   ar
    21    13    15   ar
    22    14    17   ar
    23    16    18    1
    24    17    21   ar
    25    18    26   ar
    26    18    27   ar
    27    19    23   ar
    28    19    24   ar
    29    20    21   ar
    30    20    22   ar
    31    20    25    1
    32    23    28   ar
    33    24    29   ar
    34    26    31   ar
    35    27    32   ar
    36    28    30   ar
    37    29    30   ar
    38     7    35    1
    39    17    36    1
    40    21    37    1
    41    22    38    1
    42    24    39    1
    43    25    40    1
    44    25    41    1
    45    25    42    1
    46    26    43    1
    47    27    44    1
    48    28    45    1
    49    29    46    1
    50    30    47    1
    51    31    48    1
    52    32    49    1
    53    33    50    1
    54    33    51    1
    55    33    52    1
    56    34    53    1
    57    34    54    1
    58    34    55    1
@<TRIPOS>MOLECULE
9912992
 55 58 0 0 0
SMALL
GASTEIGER

@<TRIPOS>ATOM
      1 S          -0.8177    0.5958    3.3500 S.O2    1  LIG1        0.0908
      2 O          -2.1759    0.5787    0.1768 O.3     1  LIG1       -0.4435
      3 O          -1.7771   -1.3715   -1.8817 O.3     1  LIG1       -0.4771
      4 O          -0.4535    1.5758    4.3527 O.2     1  LIG1       -0.1484
      5 O          -2.2087    0.3756    3.0094 O.2     1  LIG1       -0.1484
      6 O          -4.1359    2.0107   -1.3037 O.3     1  LIG1       -0.4914
      7 N           0.0487    0.9790    1.9416 N.pl3   1  LIG1       -0.1950
      8 N           1.1777   -0.6518    0.8408 N.ar    1  LIG1       -0.2073
      9 N           0.3176   -1.8757   -0.9966 N.ar    1  LIG1       -0.1899
     10 N           1.2173   -0.9862    4.0055 N.ar    1  LIG1       -0.2351
     11 N           4.9220   -3.8709   -0.2977 N.ar    1  LIG1       -0.2632
     12 C           0.0136    0.0126    0.8992 C.ar    1  LIG1        0.1882
     13 C          -1.0635   -0.2062    0.0636 C.ar    1  LIG1        0.2307
     14 C          -0.1349   -0.9837    3.8539 C.ar    1  LIG1        0.1969
     15 C          -0.8285   -1.1679   -0.9020 C.ar    1  LIG1        0.2638
     16 C           1.2834   -1.5898   -0.1114 C.ar    1  LIG1        0.1659
     17 C          -0.9541   -2.0968    3.9606 C.ar    1  LIG1       -0.0160
     18 C           2.5343   -2.3631   -0.1811 C.ar    1  LIG1        0.0222
     19 C          -3.4191    0.0268   -0.0434 C.ar    1  LIG1        0.1702
     20 C           1.0411   -3.3677    4.4302 C.ar    1  LIG1       -0.0322
     21 C          -0.3443   -3.3124    4.2484 C.ar    1  LIG1       -0.0541
     22 C           1.7654   -2.1832    4.3045 C.ar    1  LIG1        0.0327
     23 C          -4.3539    0.7598   -0.7863 C.ar    1  LIG1        0.1621
     24 C          -3.7816   -1.2218    0.4823 C.ar    1  LIG1       -0.0157
     25 C           1.7421   -4.6615    4.7030 C.3     1  LIG1       -0.0383
     26 C           2.8224   -3.1963   -1.2723 C.ar    1  LIG1       -0.0329
     27 C           3.4910   -2.3026    0.8433 C.ar    1  LIG1       -0.0329
     28 C          -5.5904    0.1895   -1.1001 C.ar    1  LIG1       -0.0163
     29 C          -5.0296   -1.7740    0.1875 C.ar    1  LIG1       -0.0581
     30 C          -5.9274   -1.0753   -0.6170 C.ar    1  LIG1       -0.0581
     31 C           4.0076   -3.9147   -1.2870 C.ar    1  LIG1        0.0282
     32 C           4.6455   -3.0626    0.7442 C.ar    1  LIG1        0.0282
     33 C          -1.7073   -2.6623   -2.4767 C.3     1  LIG1        0.0805
     34 C          -3.6464    2.9454   -0.3420 C.3     1  LIG1        0.0790
     35 H           1.0179    1.1448    2.2190 H       1  LIG1        0.1754
     36 H          -2.0266   -2.0308    3.8110 H       1  LIG1        0.0653
     37 H          -0.9503   -4.2123    4.3266 H       1  LIG1        0.0622
     38 H           2.8450   -2.1712    4.4353 H       1  LIG1        0.0833
     39 H          -3.0967   -1.7763    1.1156 H       1  LIG1        0.0655
     40 H           1.0326   -5.4484    4.9791 H       1  LIG1        0.0278
     41 H           2.4476   -4.5473    5.5322 H       1  LIG1        0.0278
     42 H           2.2858   -4.9873    3.8105 H       1  LIG1        0.0278
     43 H           2.1360   -3.2838   -2.1097 H       1  LIG1        0.0640
     44 H           3.3416   -1.6711    1.7138 H       1  LIG1        0.0640
     45 H          -6.2979    0.7419   -1.7128 H       1  LIG1        0.0655
     46 H          -5.2996   -2.7503    0.5811 H       1  LIG1        0.0619
     47 H          -6.8951   -1.5072   -0.8585 H       1  LIG1        0.0619
     48 H           4.2582   -4.5626   -2.1223 H       1  LIG1        0.0830
     49 H           5.4001   -3.0385    1.5253 H       1  LIG1        0.0830
     50 H          -2.5944   -2.7887   -3.1047 H       1  LIG1        0.0660
     51 H          -1.7227   -3.4529   -1.7176 H       1  LIG1        0.0660
     52 H          -0.8252   -2.7540   -3.1187 H       1  LIG1        0.0660
     53 H          -4.0308    3.9334   -0.6135 H       1  LIG1        0.0660
     54 H          -2.5543    2.9923   -0.3857 H       1  LIG1        0.0660
     55 H          -3.9850    2.7262    0.6775 H       1  LIG1        0.0660
@<TRIPOS>BOND
     1     1     4    2
     2     1     5    2
     3     1     7    1
     4     1    14    1
     5     2    13    1
     6     2    19    1
     7     3    15    1
     8     3    33    1
     9     6    23    1
    10     6    34    1
    11     7    12    1
    12     8    12   ar
    13     8    16   ar
    14     9    15   ar
    15     9    16   ar
    16    10    14   ar
    17    10    22   ar
    18    11    31   ar
    19    11    32   ar
    20    12    13   ar
    21    13    15   ar
    22    14    17   ar
    23    16    18    1
    24    17    21   ar
    25    18    26   ar
    26    18    27   ar
    27    19    23   ar
    28    19    24   ar
    29    20    21   ar
    30    20    22   ar
    31    20    25    1
    32    23    28   ar
    33    24    29   ar
    34    26    31   ar
    35    27    32   ar
    36    28    30   ar
    37    29    30   ar
    38     7    35    1
    39    17    36    1
    40    21    37    1
    41    22    38    1
    42    24    39    1
    43    25    40    1
    44    25    41    1
    45    25    42    1
    46    26    43    1
    47    27    44    1
    48    28    45    1
    49    29    46    1
    50    30    47    1
    51    31    48    1
    52    32    49    1
    53    33    50    1
    54    33    51    1
    55    33    52    1
    56    34    53    1
    57    34    54    1
    58    34    55    1
@<TRIPOS>MOLECULE
9912992
 55 58 0 0 0
SMALL
GASTEIGER

@<TRIPOS>ATOM
      1 S          -0.4945    0.4587    3.6099 S.O2    1  LIG1        0.0908
      2 O          -2.1639    0.6960    0.2215 O.3     1  LIG1       -0.4435
      3 O          -1.9571   -1.3215   -1.5077 O.3     1  LIG1       -0.4771
      4 O          -1.7831    1.0885    3.7952 O.2     1  LIG1       -0.1484
      5 O          -0.3465   -0.9810    3.6930 O.2     1  LIG1       -0.1484
      6 O          -0.2671    2.3575   -1.0815 O.3     1  LIG1       -0.4914
      7 N           0.1488    1.0319    2.1479 N.pl3   1  LIG1       -0.1950
      8 N           1.1821   -0.6549    1.0250 N.ar    1  LIG1       -0.2073
      9 N           0.1824   -1.9050   -0.7294 N.ar    1  LIG1       -0.1899
     10 N           0.8874    2.5250    4.5446 N.ar    1  LIG1       -0.2351
     11 N           4.7437   -4.0367   -0.1938 N.ar    1  LIG1       -0.2632
     12 C           0.0771    0.1091    1.0731 C.ar    1  LIG1        0.1882
     13 C          -1.0092   -0.0349    0.2321 C.ar    1  LIG1        0.2307
     14 C           0.6535    1.2007    4.7702 C.ar    1  LIG1        0.1969
     15 C          -0.8919   -1.0933   -0.6509 C.ar    1  LIG1        0.2638
     16 C           1.1917   -1.6401    0.1153 C.ar    1  LIG1        0.1659
     17 C           1.3077    0.4254    5.7121 C.ar    1  LIG1       -0.0160
     18 C           2.4033   -2.4679    0.0187 C.ar    1  LIG1        0.0222
     19 C          -2.1179    2.0650    0.3730 C.ar    1  LIG1        0.1702
     20 C           2.5590    2.4064    6.2908 C.ar    1  LIG1       -0.0322
     21 C           2.2774    1.0501    6.4882 C.ar    1  LIG1       -0.0541
     22 C           1.8333    3.0919    5.3199 C.ar    1  LIG1        0.0327
     23 C          -1.1807    2.9219   -0.2330 C.ar    1  LIG1        0.1621
     24 C          -3.1125    2.5844    1.2085 C.ar    1  LIG1       -0.0157
     25 C           3.6171    3.1124    7.0817 C.3     1  LIG1       -0.0383
     26 C           3.6396   -2.0075    0.4960 C.ar    1  LIG1       -0.0329
     27 C           2.3777   -3.7440   -0.5621 C.ar    1  LIG1       -0.0329
     28 C          -1.2322    4.2899    0.0629 C.ar    1  LIG1       -0.0163
     29 C          -3.1507    3.9456    1.4960 C.ar    1  LIG1       -0.0581
     30 C          -2.2054    4.7952    0.9302 C.ar    1  LIG1       -0.0581
     31 C           4.7611   -2.8100    0.3656 C.ar    1  LIG1        0.0282
     32 C           3.5506   -4.4778   -0.6408 C.ar    1  LIG1        0.0282
     33 C          -1.7375   -2.3887   -2.4238 C.3     1  LIG1        0.0805
     34 C           0.8912    3.1247   -1.3909 C.3     1  LIG1        0.0790
     35 H          -0.3121    1.9190    1.9634 H       1  LIG1        0.1754
     36 H           1.0930   -0.6322    5.8227 H       1  LIG1        0.0653
     37 H           2.8223    0.4725    7.2309 H       1  LIG1        0.0622
     38 H           2.0101    4.1475    5.1270 H       1  LIG1        0.0833
     39 H          -3.8398    1.9164    1.6659 H       1  LIG1        0.0655
     40 H           4.1167    2.4325    7.7794 H       1  LIG1        0.0278
     41 H           3.1751    3.9286    7.6619 H       1  LIG1        0.0278
     42 H           4.3793    3.5202    6.4096 H       1  LIG1        0.0278
     43 H           3.7315   -1.0279    0.9568 H       1  LIG1        0.0640
     44 H           1.4533   -4.1672   -0.9436 H       1  LIG1        0.0640
     45 H          -0.5311    4.9953   -0.3716 H       1  LIG1        0.0655
     46 H          -3.9109    4.3365    2.1669 H       1  LIG1        0.0619
     47 H          -2.2304    5.8585    1.1593 H       1  LIG1        0.0619
     48 H           5.7323   -2.4735    0.7168 H       1  LIG1        0.0830
     49 H           3.5594   -5.4716   -1.0798 H       1  LIG1        0.0830
     50 H          -2.6216   -2.4676   -3.0628 H       1  LIG1        0.0660
     51 H          -1.6198   -3.3430   -1.8983 H       1  LIG1        0.0660
     52 H          -0.8765   -2.1870   -3.0702 H       1  LIG1        0.0660
     53 H           1.5846    2.4776   -1.9364 H       1  LIG1        0.0660
     54 H           1.3998    3.4647   -0.4820 H       1  LIG1        0.0660
     55 H           0.6391    3.9675   -2.0421 H       1  LIG1        0.0660
@<TRIPOS>BOND
     1     1     4    2
     2     1     5    2
     3     1     7    1
     4     1    14    1
     5     2    13    1
     6     2    19    1
     7     3    15    1
     8     3    33    1
     9     6    23    1
    10     6    34    1
    11     7    12    1
    12     8    12   ar
    13     8    16   ar
    14     9    15   ar
    15     9    16   ar
    16    10    14   ar
    17    10    22   ar
    18    11    31   ar
    19    11    32   ar
    20    12    13   ar
    21    13    15   ar
    22    14    17   ar
    23    16    18    1
    24    17    21   ar
    25    18    26   ar
    26    18    27   ar
    27    19    23   ar
    28    19    24   ar
    29    20    21   ar
    30    20    22   ar
    31    20    25    1
    32    23    28   ar
    33    24    29   ar
    34    26    31   ar
    35    27    32   ar
    36    28    30   ar
    37    29    30   ar
    38     7    35    1
    39    17    36    1
    40    21    37    1
    41    22    38    1
    42    24    39    1
    43    25    40    1
    44    25    41    1
    45    25    42    1
    46    26    43    1
    47    27    44    1
    48    28    45    1
    49    29    46    1
    50    30    47    1
    51    31    48    1
    52    32    49    1
    53    33    50    1
    54    33    51    1
    55    33    52    1
    56    34    53    1
    57    34    54    1
    58    34    55    1
@<TRIPOS>MOLECULE
9912992
 55 58 0 0 0
SMALL
GASTEIGER

@<TRIPOS>ATOM
      1 S           0.4448    2.4534    1.5091 S.O2    1  LIG1        0.0908
      2 O          -2.2634    0.5274    0.2396 O.3     1  LIG1       -0.4435
      3 O          -1.8023   -1.4291   -1.8196 O.3     1  LIG1       -0.4771
      4 O           1.4198    2.2291    0.4651 O.2     1  LIG1       -0.1484
      5 O          -0.7314    3.2770    1.3025 O.2     1  LIG1       -0.1484
      6 O          -4.2680    1.9279   -1.3151 O.3     1  LIG1       -0.4914
      7 N          -0.2053    0.9601    2.0392 N.pl3   1  LIG1       -0.1950
      8 N           1.0399   -0.7244    1.0502 N.ar    1  LIG1       -0.2073
      9 N           0.2583   -1.9425   -0.8403 N.ar    1  LIG1       -0.1899
     10 N           1.5788    4.3942    2.9113 N.ar    1  LIG1       -0.2351
     11 N           4.8799   -3.8347   -0.0591 N.ar    1  LIG1       -0.2632
     12 C          -0.1206   -0.0531    1.0349 C.ar    1  LIG1        0.1882
     13 C          -1.1466   -0.2549    0.1319 C.ar    1  LIG1        0.2307
     14 C           1.3075    3.0630    2.9578 C.ar    1  LIG1        0.1969
     15 C          -0.8808   -1.2209   -0.8154 C.ar    1  LIG1        0.2638
     16 C           1.1872   -1.6495    0.0882 C.ar    1  LIG1        0.1659
     17 C           1.6203    2.2333    4.0237 C.ar    1  LIG1       -0.0160
     18 C           2.4513   -2.3981    0.0403 C.ar    1  LIG1        0.0222
     19 C          -3.5008   -0.0265    0.0039 C.ar    1  LIG1        0.1702
     20 C           2.5452    4.1776    5.1211 C.ar    1  LIG1       -0.0322
     21 C           2.2515    2.8102    5.1238 C.ar    1  LIG1       -0.0541
     22 C           2.2009    4.9134    3.9903 C.ar    1  LIG1        0.0327
     23 C          -4.4358    0.6880   -0.7582 C.ar    1  LIG1        0.1621
     24 C          -3.8516   -1.2744    0.5444 C.ar    1  LIG1       -0.0157
     25 C           3.2452    4.8334    6.2699 C.3     1  LIG1       -0.0383
     26 C           2.5233   -3.6733   -0.5395 C.ar    1  LIG1       -0.0329
     27 C           3.6373   -1.8627    0.5617 C.ar    1  LIG1       -0.0329
     28 C          -5.6658    0.0933   -1.0615 C.ar    1  LIG1       -0.0163
     29 C          -5.0899   -1.8470    0.2502 C.ar    1  LIG1       -0.0581
     30 C          -5.9919   -1.1687   -0.5643 C.ar    1  LIG1       -0.0581
     31 C           3.7368   -4.3418   -0.5619 C.ar    1  LIG1        0.0282
     32 C           4.8062   -2.6034    0.4858 C.ar    1  LIG1        0.0282
     33 C          -1.6276   -2.6584   -2.5143 C.3     1  LIG1        0.0805
     34 C          -3.5069    2.8640   -0.5578 C.3     1  LIG1        0.0790
     35 H          -1.1880    1.1692    2.2348 H       1  LIG1        0.1754
     36 H           1.3924    1.1736    4.0143 H       1  LIG1        0.0653
     37 H           2.5119    2.1910    5.9794 H       1  LIG1        0.0622
     38 H           2.4225    5.9760    3.9207 H       1  LIG1        0.0833
     39 H          -3.1609   -1.8236    1.1777 H       1  LIG1        0.0655
     40 H           3.2357    4.1948    7.1593 H       1  LIG1        0.0278
     41 H           2.7474    5.7720    6.5353 H       1  LIG1        0.0278
     42 H           4.2867    5.0426    6.0064 H       1  LIG1        0.0278
     43 H           1.6439   -4.1457   -0.9667 H       1  LIG1        0.0640
     44 H           3.6565   -0.8719    1.0072 H       1  LIG1        0.0640
     45 H          -6.3785    0.6262   -1.6869 H       1  LIG1        0.0655
     46 H          -5.3463   -2.8260    0.6468 H       1  LIG1        0.0619
     47 H          -6.9520   -1.6154   -0.8091 H       1  LIG1        0.0619
     48 H           3.8214   -5.3326   -0.9991 H       1  LIG1        0.0830
     49 H           5.7428   -2.2099    0.8705 H       1  LIG1        0.0830
     50 H          -2.4727   -2.7769   -3.1991 H       1  LIG1        0.0660
     51 H          -1.6390   -3.5090   -1.8233 H       1  LIG1        0.0660
     52 H          -0.7099   -2.6500   -3.1114 H       1  LIG1        0.0660
     53 H          -3.8384    3.8681   -0.8407 H       1  LIG1        0.0660
     54 H          -2.4478    2.7824   -0.8166 H       1  LIG1        0.0660
     55 H          -3.6661    2.7583    0.5211 H       1  LIG1        0.0660
@<TRIPOS>BOND
     1     1     4    2
     2     1     5    2
     3     1     7    1
     4     1    14    1
     5     2    13    1
     6     2    19    1
     7     3    15    1
     8     3    33    1
     9     6    23    1
    10     6    34    1
    11     7    12    1
    12     8    12   ar
    13     8    16   ar
    14     9    15   ar
    15     9    16   ar
    16    10    14   ar
    17    10    22   ar
    18    11    31   ar
    19    11    32   ar
    20    12    13   ar
    21    13    15   ar
    22    14    17   ar
    23    16    18    1
    24    17    21   ar
    25    18    26   ar
    26    18    27   ar
    27    19    23   ar
    28    19    24   ar
    29    20    21   ar
    30    20    22   ar
    31    20    25    1
    32    23    28   ar
    33    24    29   ar
    34    26    31   ar
    35    27    32   ar
    36    28    30   ar
    37    29    30   ar
    38     7    35    1
    39    17    36    1
    40    21    37    1
    41    22    38    1
    42    24    39    1
    43    25    40    1
    44    25    41    1
    45    25    42    1
    46    26    43    1
    47    27    44    1
    48    28    45    1
    49    29    46    1
    50    30    47    1
    51    31    48    1
    52    32    49    1
    53    33    50    1
    54    33    51    1
    55    33    52    1
    56    34    53    1
    57    34    54    1
    58    34    55    1
@<TRIPOS>MOLECULE
9912992
 55 58 0 0 0
SMALL
GASTEIGER

@<TRIPOS>ATOM
      1 S          -0.5624    0.3727    3.6760 S.O2    1  LIG1        0.0908
      2 O          -2.2495    0.7519    0.1287 O.3     1  LIG1       -0.4435
      3 O          -1.9311   -1.2178   -1.6362 O.3     1  LIG1       -0.4771
      4 O          -1.8536    0.9525    3.9750 O.2     1  LIG1       -0.1484
      5 O          -0.3654   -1.0622    3.6740 O.2     1  LIG1       -0.1484
      6 O          -4.1551    1.8486    1.5525 O.3     1  LIG1       -0.4914
      7 N          -0.0764    1.0574    2.1994 N.pl3   1  LIG1       -0.1950
      8 N           1.0494   -0.6101    1.0961 N.ar    1  LIG1       -0.2073
      9 N           0.1730   -1.7858   -0.7749 N.ar    1  LIG1       -0.1899
     10 N           0.2529    2.1579    5.4910 N.ar    1  LIG1       -0.2351
     11 N           4.6861   -3.9488   -0.0556 N.ar    1  LIG1       -0.2632
     12 C          -0.0644    0.1473    1.1060 C.ar    1  LIG1        0.1882
     13 C          -1.0924    0.0271    0.1876 C.ar    1  LIG1        0.2307
     14 C           0.6713    1.0879    4.7634 C.ar    1  LIG1        0.1969
     15 C          -0.9241   -1.0079   -0.7100 C.ar    1  LIG1        0.2638
     16 C           1.1257   -1.5531    0.1418 C.ar    1  LIG1        0.1659
     17 C           1.9559    0.5685    4.7805 C.ar    1  LIG1       -0.0160
     18 C           2.3417   -2.3776    0.0793 C.ar    1  LIG1        0.0222
     19 C          -2.1989    2.1205    0.2826 C.ar    1  LIG1        0.1702
     20 C           2.5040    2.2906    6.3793 C.ar    1  LIG1       -0.0322
     21 C           2.8863    1.1888    5.6070 C.ar    1  LIG1       -0.0541
     22 C           1.1825    2.7237    6.2892 C.ar    1  LIG1        0.0327
     23 C          -3.1976    2.7044    1.0797 C.ar    1  LIG1        0.1621
     24 C          -1.2039    2.9087   -0.3081 C.ar    1  LIG1       -0.0157
     25 C           3.4677    2.9845    7.2903 C.3     1  LIG1       -0.0383
     26 C           2.7093   -3.0468   -1.0982 C.ar    1  LIG1       -0.0329
     27 C           3.1849   -2.5284    1.1889 C.ar    1  LIG1       -0.0329
     28 C          -3.1319    4.0720    1.3518 C.ar    1  LIG1       -0.0163
     29 C          -1.1522    4.2732   -0.0312 C.ar    1  LIG1       -0.0581
     30 C          -2.1049    4.8495    0.8075 C.ar    1  LIG1       -0.0581
     31 C           3.8703   -3.8034   -1.1181 C.ar    1  LIG1        0.0282
     32 C           4.3229   -3.3118    1.0760 C.ar    1  LIG1        0.0282
     33 C          -1.9222   -2.5357   -2.1760 C.3     1  LIG1        0.0805
     34 C          -5.2170    2.4064    2.3129 C.3     1  LIG1        0.0790
     35 H          -0.6961    1.8544    2.0625 H       1  LIG1        0.1754
     36 H           2.2256   -0.2787    4.1594 H       1  LIG1        0.0653
     37 H           3.9067    0.8154    5.6409 H       1  LIG1        0.0622
     38 H           0.8264    3.5679    6.8749 H       1  LIG1        0.0833
     39 H          -0.4585    2.4716   -0.9674 H       1  LIG1        0.0655
     40 H           4.4819    2.5878    7.1776 H       1  LIG1        0.0278
     41 H           3.1645    2.8497    8.3337 H       1  LIG1        0.0278
     42 H           3.5025    4.0546    7.0615 H       1  LIG1        0.0278
     43 H           2.1032   -2.9751   -1.9970 H       1  LIG1        0.0640
     44 H           2.9538   -2.0505    2.1358 H       1  LIG1        0.0640
     45 H          -3.8582    4.5609    1.9925 H       1  LIG1        0.0655
     46 H          -0.3666    4.8887   -0.4641 H       1  LIG1        0.0619
     47 H          -2.0564    5.9126    1.0338 H       1  LIG1        0.0619
     48 H           4.1817   -4.3256   -2.0183 H       1  LIG1        0.0830
     49 H           4.9908   -3.4523    1.9207 H       1  LIG1        0.0830
     50 H          -2.8295   -2.6568   -2.7758 H       1  LIG1        0.0660
     51 H          -1.9445   -3.2923   -1.3833 H       1  LIG1        0.0660
     52 H          -1.0620   -2.6858   -2.8366 H       1  LIG1        0.0660
     53 H          -5.9205    1.6010    2.5447 H       1  LIG1        0.0660
     54 H          -5.7608    3.1642    1.7386 H       1  LIG1        0.0660
     55 H          -4.8496    2.8144    3.2597 H       1  LIG1        0.0660
@<TRIPOS>BOND
     1     1     4    2
     2     1     5    2
     3     1     7    1
     4     1    14    1
     5     2    13    1
     6     2    19    1
     7     3    15    1
     8     3    33    1
     9     6    23    1
    10     6    34    1
    11     7    12    1
    12     8    12   ar
    13     8    16   ar
    14     9    15   ar
    15     9    16   ar
    16    10    14   ar
    17    10    22   ar
    18    11    31   ar
    19    11    32   ar
    20    12    13   ar
    21    13    15   ar
    22    14    17   ar
    23    16    18    1
    24    17    21   ar
    25    18    26   ar
    26    18    27   ar
    27    19    23   ar
    28    19    24   ar
    29    20    21   ar
    30    20    22   ar
    31    20    25    1
    32    23    28   ar
    33    24    29   ar
    34    26    31   ar
    35    27    32   ar
    36    28    30   ar
    37    29    30   ar
    38     7    35    1
    39    17    36    1
    40    21    37    1
    41    22    38    1
    42    24    39    1
    43    25    40    1
    44    25    41    1
    45    25    42    1
    46    26    43    1
    47    27    44    1
    48    28    45    1
    49    29    46    1
    50    30    47    1
    51    31    48    1
    52    32    49    1
    53    33    50    1
    54    33    51    1
    55    33    52    1
    56    34    53    1
    57    34    54    1
    58    34    55    1
@<TRIPOS>MOLECULE
9912992
 55 58 0 0 0
SMALL
GASTEIGER

@<TRIPOS>ATOM
      1 S           0.3535    2.5046    1.4885 S.O2    1  LIG1        0.0908
      2 O          -2.1978    0.6352    0.1179 O.3     1  LIG1       -0.4435
      3 O          -1.6849   -1.1827   -2.0282 O.3     1  LIG1       -0.4771
      4 O           1.5107    2.8134    2.3058 O.2     1  LIG1       -0.1484
      5 O           0.3987    2.5378    0.0408 O.2     1  LIG1       -0.1484
      6 O          -4.2599    1.9364   -1.5568 O.3     1  LIG1       -0.4914
      7 N          -0.1191    0.9433    2.0018 N.pl3   1  LIG1       -0.1950
      8 N           1.0617   -0.7222    0.9819 N.ar    1  LIG1       -0.2073
      9 N           0.3301   -1.8061   -1.0058 N.ar    1  LIG1       -0.1899
     10 N          -0.8264    4.8628    1.6467 N.ar    1  LIG1       -0.2351
     11 N           4.8441   -3.9007   -0.0928 N.ar    1  LIG1       -0.2632
     12 C          -0.0781   -0.0187    0.9549 C.ar    1  LIG1        0.1882
     13 C          -1.0817   -0.1499    0.0165 C.ar    1  LIG1        0.2307
     14 C          -0.9864    3.5665    2.0244 C.ar    1  LIG1        0.1969
     15 C          -0.7905   -1.0528   -0.9854 C.ar    1  LIG1        0.2638
     16 C           1.2210   -1.6015   -0.0199 C.ar    1  LIG1        0.1659
     17 C          -2.0791    3.0827    2.7260 C.ar    1  LIG1       -0.0160
     18 C           2.4611   -2.3889   -0.0452 C.ar    1  LIG1        0.0222
     19 C          -3.4282    0.0651   -0.1229 C.ar    1  LIG1        0.1702
     20 C          -2.9575    5.3344    2.6903 C.ar    1  LIG1       -0.0322
     21 C          -3.0793    3.9924    3.0637 C.ar    1  LIG1       -0.0541
     22 C          -1.8140    5.7129    1.9934 C.ar    1  LIG1        0.0327
     23 C          -4.3701    0.7286   -0.9225 C.ar    1  LIG1        0.1621
     24 C          -3.7639   -1.1621    0.4782 C.ar    1  LIG1       -0.0157
     25 C          -4.0011    6.3487    3.0380 C.3     1  LIG1       -0.0383
     26 C           3.6391   -1.9137    0.5493 C.ar    1  LIG1       -0.0329
     27 C           2.5170   -3.6435   -0.6686 C.ar    1  LIG1       -0.0329
     28 C          -5.6058    0.1092   -1.1616 C.ar    1  LIG1       -0.0163
     29 C          -4.9991   -1.7612    0.2304 C.ar    1  LIG1       -0.0581
     30 C          -5.9187   -1.1284   -0.5977 C.ar    1  LIG1       -0.0581
     31 C           4.7860   -2.6894    0.4963 C.ar    1  LIG1        0.0282
     32 C           3.7085   -4.3509   -0.6628 C.ar    1  LIG1        0.0282
     33 C          -1.2483   -2.0508   -3.0671 C.3     1  LIG1        0.0805
     34 C          -3.1535    2.7728   -1.2532 C.3     1  LIG1        0.0790
     35 H           0.5626    0.6723    2.7138 H       1  LIG1        0.1754
     36 H          -2.1750    2.0396    3.0013 H       1  LIG1        0.0653
     37 H          -3.9535    3.6493    3.6124 H       1  LIG1        0.0622
     38 H          -1.6578    6.7435    1.6829 H       1  LIG1        0.0833
     39 H          -3.0634   -1.6701    1.1351 H       1  LIG1        0.0655
     40 H          -4.8883    5.8771    3.4725 H       1  LIG1        0.0278
     41 H          -4.3189    6.8890    2.1401 H       1  LIG1        0.0278
     42 H          -3.6040    7.0640    3.7653 H       1  LIG1        0.0278
     43 H           3.6712   -0.9434    1.0368 H       1  LIG1        0.0640
     44 H           1.6416   -4.0712   -1.1483 H       1  LIG1        0.0640
     45 H          -6.3357    0.6036   -1.7996 H       1  LIG1        0.0655
     46 H          -5.2408   -2.7214    0.6790 H       1  LIG1        0.0619
     47 H          -6.8810   -1.5903   -0.8030 H       1  LIG1        0.0619
     48 H           5.7161   -2.3427    0.9381 H       1  LIG1        0.0830
     49 H           3.7807   -5.3285   -1.1309 H       1  LIG1        0.0830
     50 H          -2.0194   -2.0557   -3.8435 H       1  LIG1        0.0660
     51 H          -1.1354   -3.0779   -2.7036 H       1  LIG1        0.0660
     52 H          -0.3194   -1.6897   -3.5218 H       1  LIG1        0.0660
     53 H          -3.3211    3.7355   -1.7461 H       1  LIG1        0.0660
     54 H          -2.2249    2.3581   -1.6552 H       1  LIG1        0.0660
     55 H          -3.0867    2.9682   -0.1797 H       1  LIG1        0.0660
@<TRIPOS>BOND
     1     1     4    2
     2     1     5    2
     3     1     7    1
     4     1    14    1
     5     2    13    1
     6     2    19    1
     7     3    15    1
     8     3    33    1
     9     6    23    1
    10     6    34    1
    11     7    12    1
    12     8    12   ar
    13     8    16   ar
    14     9    15   ar
    15     9    16   ar
    16    10    14   ar
    17    10    22   ar
    18    11    31   ar
    19    11    32   ar
    20    12    13   ar
    21    13    15   ar
    22    14    17   ar
    23    16    18    1
    24    17    21   ar
    25    18    26   ar
    26    18    27   ar
    27    19    23   ar
    28    19    24   ar
    29    20    21   ar
    30    20    22   ar
    31    20    25    1
    32    23    28   ar
    33    24    29   ar
    34    26    31   ar
    35    27    32   ar
    36    28    30   ar
    37    29    30   ar
    38     7    35    1
    39    17    36    1
    40    21    37    1
    41    22    38    1
    42    24    39    1
    43    25    40    1
    44    25    41    1
    45    25    42    1
    46    26    43    1
    47    27    44    1
    48    28    45    1
    49    29    46    1
    50    30    47    1
    51    31    48    1
    52    32    49    1
    53    33    50    1
    54    33    51    1
    55    33    52    1
    56    34    53    1
    57    34    54    1
    58    34    55    1
@<TRIPOS>MOLECULE
9912992
 55 58 0 0 0
SMALL
GASTEIGER

@<TRIPOS>ATOM
      1 S           0.9282    2.6980    1.1875 S.O2    1  LIG1        0.0908
      2 O          -2.3391    0.5609    0.4135 O.3     1  LIG1       -0.4435
      3 O          -2.1368   -1.5673   -1.1880 O.3     1  LIG1       -0.4771
      4 O           0.4565    3.8425    1.9492 O.2     1  LIG1       -0.1484
      5 O           2.3490    2.4289    1.1012 O.2     1  LIG1       -0.1484
      6 O          -3.3993    2.9782    0.5286 O.3     1  LIG1       -0.4914
      7 N           0.1238    1.3806    1.8713 N.pl3   1  LIG1       -0.1950
      8 N           1.1499   -0.4870    0.9965 N.ar    1  LIG1       -0.2073
      9 N           0.1088   -1.9203   -0.5916 N.ar    1  LIG1       -0.1899
     10 N           0.6576    1.8874   -1.3399 N.ar    1  LIG1       -0.2351
     11 N           4.7521   -3.8587   -0.1705 N.ar    1  LIG1       -0.2632
     12 C           0.0077    0.2107    1.0766 C.ar    1  LIG1        0.1882
     13 C          -1.1538   -0.1241    0.4000 C.ar    1  LIG1        0.2307
     14 C           0.2728    2.8649   -0.4764 C.ar    1  LIG1        0.1969
     15 C          -1.0236   -1.2063   -0.4478 C.ar    1  LIG1        0.2638
     16 C           1.1606   -1.5259    0.1471 C.ar    1  LIG1        0.1659
     17 C          -0.5714    3.9143   -0.8000 C.ar    1  LIG1       -0.0160
     18 C           2.3980   -2.3112    0.0331 C.ar    1  LIG1        0.0222
     19 C          -2.8647    0.9601    1.6233 C.ar    1  LIG1        0.1702
     20 C          -0.7060    2.9719   -3.0193 C.ar    1  LIG1       -0.0322
     21 C          -1.0716    3.9586   -2.0984 C.ar    1  LIG1       -0.0541
     22 C           0.1628    1.9719   -2.5913 C.ar    1  LIG1        0.0327
     23 C          -3.4168    2.2507    1.6891 C.ar    1  LIG1        0.1621
     24 C          -2.8661    0.1281    2.7489 C.ar    1  LIG1       -0.0157
     25 C          -1.2155    2.9790   -4.4258 C.3     1  LIG1       -0.0383
     26 C           2.6908   -3.0488   -1.1235 C.ar    1  LIG1       -0.0329
     27 C           3.3295   -2.3633    1.0791 C.ar    1  LIG1       -0.0329
     28 C          -3.8867    2.7271    2.9145 C.ar    1  LIG1       -0.0163
     29 C          -3.3442    0.6132    3.9648 C.ar    1  LIG1       -0.0581
     30 C          -3.8413    1.9126    4.0494 C.ar    1  LIG1       -0.0581
     31 C           3.8608   -3.7892   -1.1791 C.ar    1  LIG1        0.0282
     32 C           4.4677   -3.1407    0.9355 C.ar    1  LIG1        0.0282
     33 C          -1.9344   -2.7187   -2.0004 C.3     1  LIG1        0.0805
     34 C          -4.2725    4.0993    0.4644 C.3     1  LIG1        0.0790
     35 H          -0.7102    1.7050    2.3495 H       1  LIG1        0.1754
     36 H          -0.8530    4.6636   -0.0685 H       1  LIG1        0.0653
     37 H          -1.7501    4.7587   -2.3838 H       1  LIG1        0.0622
     38 H           0.4908    1.1840   -3.2653 H       1  LIG1        0.0833
     39 H          -2.4869   -0.8889    2.6962 H       1  LIG1        0.0655
     40 H          -1.9298    3.7924   -4.5895 H       1  LIG1        0.0278
     41 H          -1.7265    2.0364   -4.6473 H       1  LIG1        0.0278
     42 H          -0.3852    3.1113   -5.1267 H       1  LIG1        0.0278
     43 H           2.0203   -3.0402   -1.9774 H       1  LIG1        0.0640
     44 H           3.1685   -1.8102    2.0002 H       1  LIG1        0.0640
     45 H          -4.2774    3.7339    3.0234 H       1  LIG1        0.0655
     46 H          -3.3239   -0.0191    4.8496 H       1  LIG1        0.0619
     47 H          -4.1999    2.2945    5.0030 H       1  LIG1        0.0619
     48 H           4.1179   -4.3625   -2.0651 H       1  LIG1        0.0830
     49 H           5.2010   -3.2085    1.7341 H       1  LIG1        0.0830
     50 H          -2.8665   -2.9146   -2.5393 H       1  LIG1        0.0660
     51 H          -1.7118   -3.5997   -1.3885 H       1  LIG1        0.0660
     52 H          -1.1495   -2.5480   -2.7455 H       1  LIG1        0.0660
     53 H          -4.3101    4.4333   -0.5771 H       1  LIG1        0.0660
     54 H          -3.8828    4.9262    1.0661 H       1  LIG1        0.0660
     55 H          -5.2924    3.8364    0.7657 H       1  LIG1        0.0660
@<TRIPOS>BOND
     1     1     4    2
     2     1     5    2
     3     1     7    1
     4     1    14    1
     5     2    13    1
     6     2    19    1
     7     3    15    1
     8     3    33    1
     9     6    23    1
    10     6    34    1
    11     7    12    1
    12     8    12   ar
    13     8    16   ar
    14     9    15   ar
    15     9    16   ar
    16    10    14   ar
    17    10    22   ar
    18    11    31   ar
    19    11    32   ar
    20    12    13   ar
    21    13    15   ar
    22    14    17   ar
    23    16    18    1
    24    17    21   ar
    25    18    26   ar
    26    18    27   ar
    27    19    23   ar
    28    19    24   ar
    29    20    21   ar
    30    20    22   ar
    31    20    25    1
    32    23    28   ar
    33    24    29   ar
    34    26    31   ar
    35    27    32   ar
    36    28    30   ar
    37    29    30   ar
    38     7    35    1
    39    17    36    1
    40    21    37    1
    41    22    38    1
    42    24    39    1
    43    25    40    1
    44    25    41    1
    45    25    42    1
    46    26    43    1
    47    27    44    1
    48    28    45    1
    49    29    46    1
    50    30    47    1
    51    31    48    1
    52    32    49    1
    53    33    50    1
    54    33    51    1
    55    33    52    1
    56    34    53    1
    57    34    54    1
    58    34    55    1
@<TRIPOS>MOLECULE
9912992
 55 58 0 0 0
SMALL
GASTEIGER

@<TRIPOS>ATOM
      1 S          -0.6435    0.5775    3.4456 S.O2    1  LIG1        0.0908
      2 O          -2.1824    0.7357   -0.0111 O.3     1  LIG1       -0.4435
      3 O          -1.8323   -1.3145   -1.6633 O.3     1  LIG1       -0.4771
      4 O          -1.3323    1.6375    4.1463 O.2     1  LIG1       -0.1484
      5 O          -1.2733   -0.7057    3.1951 O.2     1  LIG1       -0.1484
      6 O          -4.1914    1.8165    1.7340 O.3     1  LIG1       -0.4914
      7 N          -0.0071    1.2138    1.9967 N.pl3   1  LIG1       -0.1950
      8 N           1.1868   -0.4545    0.9735 N.ar    1  LIG1       -0.2073
      9 N           0.2908   -1.7984   -0.7760 N.ar    1  LIG1       -0.1899
     10 N           1.8534    1.1804    4.0825 N.ar    1  LIG1       -0.2351
     11 N           4.8069   -3.8942    0.0748 N.ar    1  LIG1       -0.2632
     12 C           0.0497    0.2609    0.9451 C.ar    1  LIG1        0.1882
     13 C          -1.0012    0.0504    0.0712 C.ar    1  LIG1        0.2307
     14 C           0.8670    0.2794    4.3652 C.ar    1  LIG1        0.1969
     15 C          -0.8157   -1.0286   -0.7679 C.ar    1  LIG1        0.2638
     16 C           1.2563   -1.4748    0.1005 C.ar    1  LIG1        0.1659
     17 C           0.9699   -0.7773    5.2511 C.ar    1  LIG1       -0.0160
     18 C           2.4721   -2.3039    0.1008 C.ar    1  LIG1        0.0222
     19 C          -2.2138    2.0781    0.2799 C.ar    1  LIG1        0.1702
     20 C           3.2002    0.0234    5.7310 C.ar    1  LIG1       -0.0322
     21 C           2.1671   -0.8980    5.9493 C.ar    1  LIG1       -0.0541
     22 C           2.9889    1.0369    4.7980 C.ar    1  LIG1        0.0327
     23 C          -3.2027    2.5614    1.1473 C.ar    1  LIG1        0.1621
     24 C          -1.2972    2.9686   -0.2986 C.ar    1  LIG1       -0.0157
     25 C           4.4705   -0.0273    6.5213 C.3     1  LIG1       -0.0383
     26 C           2.4751   -3.5937   -0.4533 C.ar    1  LIG1       -0.0329
     27 C           3.6772   -1.8403    0.6461 C.ar    1  LIG1       -0.0329
     28 C          -3.1794    3.9051    1.5301 C.ar    1  LIG1       -0.0163
     29 C          -1.3002    4.3148    0.0706 C.ar    1  LIG1       -0.0581
     30 C          -2.2303    4.7786    0.9986 C.ar    1  LIG1       -0.0581
     31 C           3.6436   -4.3381   -0.4409 C.ar    1  LIG1        0.0282
     32 C           4.7984   -2.6549    0.6053 C.ar    1  LIG1        0.0282
     33 C          -1.5915   -2.4701   -2.4584 C.3     1  LIG1        0.0805
     34 C          -4.8186    0.8636    0.8802 C.3     1  LIG1        0.0790
     35 H           0.9451    1.5216    2.2237 H       1  LIG1        0.1754
     36 H           0.1482   -1.4672    5.4084 H       1  LIG1        0.0653
     37 H           2.2874   -1.7009    6.6725 H       1  LIG1        0.0622
     38 H           3.7494    1.7898    4.6058 H       1  LIG1        0.0833
     39 H          -0.5615    2.6183   -1.0158 H       1  LIG1        0.0655
     40 H           4.6308   -1.0209    6.9519 H       1  LIG1        0.0278
     41 H           4.4327    0.7030    7.3358 H       1  LIG1        0.0278
     42 H           5.3313    0.1964    5.8826 H       1  LIG1        0.0278
     43 H           1.5751   -4.0210   -0.8864 H       1  LIG1        0.0640
     44 H           3.7498   -0.8519    1.0894 H       1  LIG1        0.0640
     45 H          -3.9093    4.2706    2.2482 H       1  LIG1        0.0655
     46 H          -0.5678    4.9972   -0.3518 H       1  LIG1        0.0619
     47 H          -2.2216    5.8203    1.3077 H       1  LIG1        0.0619
     48 H           3.6723   -5.3408   -0.8584 H       1  LIG1        0.0830
     49 H           5.7485   -2.3185    1.0091 H       1  LIG1        0.0830
     50 H          -2.4581   -2.6121   -3.1115 H       1  LIG1        0.0660
     51 H          -1.4925   -3.3664   -1.8366 H       1  LIG1        0.0660
     52 H          -0.7120   -2.3348   -3.0973 H       1  LIG1        0.0660
     53 H          -5.8445    0.7245    1.2343 H       1  LIG1        0.0660
     54 H          -4.3118   -0.1031    0.9534 H       1  LIG1        0.0660
     55 H          -4.8732    1.2017   -0.1610 H       1  LIG1        0.0660
@<TRIPOS>BOND
     1     1     4    2
     2     1     5    2
     3     1     7    1
     4     1    14    1
     5     2    13    1
     6     2    19    1
     7     3    15    1
     8     3    33    1
     9     6    23    1
    10     6    34    1
    11     7    12    1
    12     8    12   ar
    13     8    16   ar
    14     9    15   ar
    15     9    16   ar
    16    10    14   ar
    17    10    22   ar
    18    11    31   ar
    19    11    32   ar
    20    12    13   ar
    21    13    15   ar
    22    14    17   ar
    23    16    18    1
    24    17    21   ar
    25    18    26   ar
    26    18    27   ar
    27    19    23   ar
    28    19    24   ar
    29    20    21   ar
    30    20    22   ar
    31    20    25    1
    32    23    28   ar
    33    24    29   ar
    34    26    31   ar
    35    27    32   ar
    36    28    30   ar
    37    29    30   ar
    38     7    35    1
    39    17    36    1
    40    21    37    1
    41    22    38    1
    42    24    39    1
    43    25    40    1
    44    25    41    1
    45    25    42    1
    46    26    43    1
    47    27    44    1
    48    28    45    1
    49    29    46    1
    50    30    47    1
    51    31    48    1
    52    32    49    1
    53    33    50    1
    54    33    51    1
    55    33    52    1
    56    34    53    1
    57    34    54    1
    58    34    55    1
@<TRIPOS>MOLECULE
9912992
 55 58 0 0 0
SMALL
GASTEIGER

@<TRIPOS>ATOM
      1 S          -0.6655    0.5725    3.4613 S.O2    1  LIG1        0.0908
      2 O          -2.1827    0.7574   -0.0245 O.3     1  LIG1       -0.4435
      3 O          -1.8086   -1.2600   -1.7117 O.3     1  LIG1       -0.4771
      4 O          -1.3534    1.6351    4.1645 O.2     1  LIG1       -0.1484
      5 O          -1.2949   -0.7094    3.2117 O.2     1  LIG1       -0.1484
      6 O          -4.2045    1.8314    1.7167 O.3     1  LIG1       -0.4914
      7 N          -0.0313    1.2095    2.0113 N.pl3   1  LIG1       -0.1950
      8 N           1.1630   -0.4662    0.9972 N.ar    1  LIG1       -0.2073
      9 N           0.3042   -1.7574   -0.8075 N.ar    1  LIG1       -0.1899
     10 N           1.8310    1.1850    4.0972 N.ar    1  LIG1       -0.2351
     11 N           4.8024   -3.8933    0.0940 N.ar    1  LIG1       -0.2632
     12 C           0.0317    0.2584    0.9593 C.ar    1  LIG1        0.1882
     13 C          -1.0046    0.0676    0.0640 C.ar    1  LIG1        0.2307
     14 C           0.8496    0.2764    4.3757 C.ar    1  LIG1        0.1969
     15 C          -0.8059   -0.9931   -0.7948 C.ar    1  LIG1        0.2638
     16 C           1.2519   -1.4622    0.0978 C.ar    1  LIG1        0.1659
     17 C           0.9615   -0.7866    5.2521 C.ar    1  LIG1       -0.0160
     18 C           2.4693   -2.2946    0.1013 C.ar    1  LIG1        0.0222
     19 C          -2.2118    2.0968    0.2814 C.ar    1  LIG1        0.1702
     20 C           3.1873    0.0265    5.7358 C.ar    1  LIG1       -0.0322
     21 C           2.1614   -0.9042    5.9473 C.ar    1  LIG1       -0.0541
     22 C           2.9673    1.0454    4.8105 C.ar    1  LIG1        0.0327
     23 C          -3.2055    2.5750    1.1458 C.ar    1  LIG1        0.1621
     24 C          -1.2850    2.9884   -0.2787 C.ar    1  LIG1       -0.0157
     25 C           4.4586   -0.0196    6.5248 C.3     1  LIG1       -0.0383
     26 C           2.6367   -3.3489   -0.8126 C.ar    1  LIG1       -0.0329
     27 C           3.5114   -2.0735    1.0127 C.ar    1  LIG1       -0.0329
     28 C          -3.1777    3.9146    1.5434 C.ar    1  LIG1       -0.0163
     29 C          -1.2831    4.3298    0.1060 C.ar    1  LIG1       -0.0581
     30 C          -2.2184    4.7887    1.0305 C.ar    1  LIG1       -0.0581
     31 C           3.7980   -4.1049   -0.7776 C.ar    1  LIG1        0.0282
     32 C           4.6375   -2.8827    0.9707 C.ar    1  LIG1        0.0282
     33 C          -1.5852   -2.4358   -2.4817 C.3     1  LIG1        0.0805
     34 C          -4.8166    0.8735    0.8585 C.3     1  LIG1        0.0790
     35 H           0.9185    1.5240    2.2380 H       1  LIG1        0.1754
     36 H           0.1448   -1.4831    5.4061 H       1  LIG1        0.0653
     37 H           2.2876   -1.7117    6.6654 H       1  LIG1        0.0622
     38 H           3.7219    1.8065    4.6239 H       1  LIG1        0.0833
     39 H          -0.5445    2.6418   -0.9932 H       1  LIG1        0.0655
     40 H           4.6185   -1.0101    6.9627 H       1  LIG1        0.0278
     41 H           4.4227    0.7164    7.3344 H       1  LIG1        0.0278
     42 H           5.3184    0.1987    5.8830 H       1  LIG1        0.0278
     43 H           1.8728   -3.5844   -1.5470 H       1  LIG1        0.0640
     44 H           3.4545   -1.2799    1.7522 H       1  LIG1        0.0640
     45 H          -3.9118    4.2766    2.2590 H       1  LIG1        0.0655
     46 H          -0.5426    5.0128   -0.3017 H       1  LIG1        0.0619
     47 H          -2.2067    5.8267    1.3522 H       1  LIG1        0.0619
     48 H           3.9523   -4.9252   -1.4733 H       1  LIG1        0.0830
     49 H           5.4606   -2.7322    1.6628 H       1  LIG1        0.0830
     50 H          -2.4494   -2.5732   -3.1388 H       1  LIG1        0.0660
     51 H          -1.5092   -3.3218   -1.8418 H       1  LIG1        0.0660
     52 H          -0.6982   -2.3309   -3.1157 H       1  LIG1        0.0660
     53 H          -5.8464    0.7310    1.2005 H       1  LIG1        0.0660
     54 H          -4.3070   -0.0909    0.9410 H       1  LIG1        0.0660
     55 H          -4.8607    1.2084   -0.1843 H       1  LIG1        0.0660
@<TRIPOS>BOND
     1     1     4    2
     2     1     5    2
     3     1     7    1
     4     1    14    1
     5     2    13    1
     6     2    19    1
     7     3    15    1
     8     3    33    1
     9     6    23    1
    10     6    34    1
    11     7    12    1
    12     8    12   ar
    13     8    16   ar
    14     9    15   ar
    15     9    16   ar
    16    10    14   ar
    17    10    22   ar
    18    11    31   ar
    19    11    32   ar
    20    12    13   ar
    21    13    15   ar
    22    14    17   ar
    23    16    18    1
    24    17    21   ar
    25    18    26   ar
    26    18    27   ar
    27    19    23   ar
    28    19    24   ar
    29    20    21   ar
    30    20    22   ar
    31    20    25    1
    32    23    28   ar
    33    24    29   ar
    34    26    31   ar
    35    27    32   ar
    36    28    30   ar
    37    29    30   ar
    38     7    35    1
    39    17    36    1
    40    21    37    1
    41    22    38    1
    42    24    39    1
    43    25    40    1
    44    25    41    1
    45    25    42    1
    46    26    43    1
    47    27    44    1
    48    28    45    1
    49    29    46    1
    50    30    47    1
    51    31    48    1
    52    32    49    1
    53    33    50    1
    54    33    51    1
    55    33    52    1
    56    34    53    1
    57    34    54    1
    58    34    55    1
@<TRIPOS>MOLECULE
9912992
 55 58 0 0 0
SMALL
GASTEIGER

@<TRIPOS>ATOM
      1 S          -0.7697    0.7410    3.2448 S.O2    1  LIG1        0.0908
      2 O          -2.2587    0.5132    0.1208 O.3     1  LIG1       -0.4435
      3 O          -1.8286   -1.4730   -1.8977 O.3     1  LIG1       -0.4771
      4 O          -0.3288    1.7385    4.1992 O.2     1  LIG1       -0.1484
      5 O          -2.1841    0.5445    3.0005 O.2     1  LIG1       -0.1484
      6 O          -2.9627   -2.0198    1.2075 O.3     1  LIG1       -0.4914
      7 N           0.0162    1.0881    1.7783 N.pl3   1  LIG1       -0.1950
      8 N           1.1600   -0.5511    0.7161 N.ar    1  LIG1       -0.2073
      9 N           0.2781   -1.9264   -0.9995 N.ar    1  LIG1       -0.1899
     10 N           1.2887   -0.8715    3.7286 N.ar    1  LIG1       -0.2351
     11 N           4.8482   -3.9129   -0.0460 N.ar    1  LIG1       -0.2632
     12 C          -0.0262    0.0717    0.7846 C.ar    1  LIG1        0.1882
     13 C          -1.1183   -0.2261   -0.0031 C.ar    1  LIG1        0.2307
     14 C          -0.0722   -0.8319    3.7529 C.ar    1  LIG1        0.1969
     15 C          -0.8749   -1.2244   -0.9302 C.ar    1  LIG1        0.2638
     16 C           1.2521   -1.5666   -0.1517 C.ar    1  LIG1        0.1659
     17 C          -0.8962   -1.9106    4.0268 C.ar    1  LIG1       -0.0160
     18 C           2.4899   -2.3612   -0.1367 C.ar    1  LIG1        0.0222
     19 C          -3.4863   -0.0869   -0.0775 C.ar    1  LIG1        0.1702
     20 C           1.1108   -3.2311    4.2563 C.ar    1  LIG1       -0.0322
     21 C          -0.2840   -3.1325    4.2868 C.ar    1  LIG1       -0.0541
     22 C           1.8418   -2.0761    3.9833 C.ar    1  LIG1        0.0327
     23 C          -3.8748   -1.3361    0.4435 C.ar    1  LIG1        0.1621
     24 C          -4.3897    0.6789   -0.8252 C.ar    1  LIG1       -0.0157
     25 C           1.8121   -4.5320    4.4922 C.3     1  LIG1       -0.0383
     26 C           3.6638   -1.8755    0.4588 C.ar    1  LIG1       -0.0329
     27 C           2.5406   -3.6474   -0.6929 C.ar    1  LIG1       -0.0329
     28 C          -5.1666   -1.8045    0.1692 C.ar    1  LIG1       -0.0163
     29 C          -5.6671    0.1957   -1.0968 C.ar    1  LIG1       -0.0581
     30 C          -6.0530   -1.0466   -0.6032 C.ar    1  LIG1       -0.0581
     31 C           4.7980   -2.6709    0.4753 C.ar    1  LIG1        0.0282
     32 C           3.7193   -4.3725   -0.6217 C.ar    1  LIG1        0.0282
     33 C          -1.6853   -2.7398   -2.5275 C.3     1  LIG1        0.0805
     34 C          -3.2304   -3.3947    1.4509 C.3     1  LIG1        0.0790
     35 H           0.9902    1.2858    2.0112 H       1  LIG1        0.1754
     36 H          -1.9769   -1.8134    4.0145 H       1  LIG1        0.0653
     37 H          -0.8974   -4.0054    4.4968 H       1  LIG1        0.0622
     38 H           2.9286   -2.0967    3.9495 H       1  LIG1        0.0833
     39 H          -4.0878    1.6523   -1.2032 H       1  LIG1        0.0655
     40 H           1.1008   -5.3392    4.6965 H       1  LIG1        0.0278
     41 H           2.4842   -4.4504    5.3521 H       1  LIG1        0.0278
     42 H           2.3917   -4.8130    3.6067 H       1  LIG1        0.0278
     43 H           3.6982   -0.8862    0.9067 H       1  LIG1        0.0640
     44 H           1.6688   -4.0885   -1.1667 H       1  LIG1        0.0640
     45 H          -5.5234   -2.7538    0.5541 H       1  LIG1        0.0655
     46 H          -6.3597    0.7903   -1.6864 H       1  LIG1        0.0619
     47 H          -7.0519   -1.4239   -0.8080 H       1  LIG1        0.0619
     48 H           5.7222   -2.3174    0.9238 H       1  LIG1        0.0830
     49 H           3.7850   -5.3744   -1.0363 H       1  LIG1        0.0830
     50 H          -2.5604   -2.8951   -3.1657 H       1  LIG1        0.0660
     51 H          -1.6633   -3.5507   -1.7906 H       1  LIG1        0.0660
     52 H          -0.7963   -2.7657   -3.1663 H       1  LIG1        0.0660
     53 H          -2.3395   -3.8333    1.9096 H       1  LIG1        0.0660
     54 H          -3.4206   -3.9393    0.5198 H       1  LIG1        0.0660
     55 H          -4.0591   -3.5108    2.1566 H       1  LIG1        0.0660
@<TRIPOS>BOND
     1     1     4    2
     2     1     5    2
     3     1     7    1
     4     1    14    1
     5     2    13    1
     6     2    19    1
     7     3    15    1
     8     3    33    1
     9     6    23    1
    10     6    34    1
    11     7    12    1
    12     8    12   ar
    13     8    16   ar
    14     9    15   ar
    15     9    16   ar
    16    10    14   ar
    17    10    22   ar
    18    11    31   ar
    19    11    32   ar
    20    12    13   ar
    21    13    15   ar
    22    14    17   ar
    23    16    18    1
    24    17    21   ar
    25    18    26   ar
    26    18    27   ar
    27    19    23   ar
    28    19    24   ar
    29    20    21   ar
    30    20    22   ar
    31    20    25    1
    32    23    28   ar
    33    24    29   ar
    34    26    31   ar
    35    27    32   ar
    36    28    30   ar
    37    29    30   ar
    38     7    35    1
    39    17    36    1
    40    21    37    1
    41    22    38    1
    42    24    39    1
    43    25    40    1
    44    25    41    1
    45    25    42    1
    46    26    43    1
    47    27    44    1
    48    28    45    1
    49    29    46    1
    50    30    47    1
    51    31    48    1
    52    32    49    1
    53    33    50    1
    54    33    51    1
    55    33    52    1
    56    34    53    1
    57    34    54    1
    58    34    55    1
@<TRIPOS>MOLECULE
9912992
 55 58 0 0 0
SMALL
GASTEIGER

@<TRIPOS>ATOM
      1 S          -0.5251    0.7349    3.3023 S.O2    1  LIG1        0.0908
      2 O          -2.2113    0.5928    0.0138 O.3     1  LIG1       -0.4435
      3 O          -2.0553   -1.8714   -1.4281 O.3     1  LIG1       -0.4771
      4 O           0.6836    0.3710    4.0116 O.2     1  LIG1       -0.1484
      5 O          -1.3558    1.8233    3.7900 O.2     1  LIG1       -0.1484
      6 O          -0.8936    1.2980   -2.3965 O.3     1  LIG1       -0.4914
      7 N          -0.1401    1.1752    1.7085 N.pl3   1  LIG1       -0.1950
      8 N           1.0993   -0.6075    0.8647 N.ar    1  LIG1       -0.2073
      9 N           0.1624   -2.1305   -0.7131 N.ar    1  LIG1       -0.1899
     10 N          -0.9215   -1.8917    3.0586 N.ar    1  LIG1       -0.2351
     11 N           4.8173   -3.9338    0.0217 N.ar    1  LIG1       -0.2632
     12 C          -0.0338    0.1024    0.7825 C.ar    1  LIG1        0.1882
     13 C          -1.1072   -0.2167   -0.0267 C.ar    1  LIG1        0.2307
     14 C          -1.5874   -0.7126    3.1689 C.ar    1  LIG1        0.1969
     15 C          -0.9670   -1.3970   -0.7226 C.ar    1  LIG1        0.2638
     16 C           1.1596   -1.6947    0.0816 C.ar    1  LIG1        0.1659
     17 C          -2.9651   -0.5757    3.0995 C.ar    1  LIG1       -0.0160
     18 C           2.4094   -2.4640    0.0685 C.ar    1  LIG1        0.0222
     19 C          -2.8799    0.8606   -1.1618 C.ar    1  LIG1        0.1702
     20 C          -3.0643   -2.9641    2.7394 C.ar    1  LIG1       -0.0322
     21 C          -3.7113   -1.7304    2.8738 C.ar    1  LIG1       -0.0541
     22 C          -1.6782   -2.9890    2.8614 C.ar    1  LIG1        0.0327
     23 C          -2.2598    1.1859   -2.3804 C.ar    1  LIG1        0.1621
     24 C          -4.2751    0.8326   -1.0652 C.ar    1  LIG1       -0.0157
     25 C          -3.8231   -4.2323    2.5053 C.3     1  LIG1       -0.0383
     26 C           2.8124   -3.1700   -1.0748 C.ar    1  LIG1       -0.0329
     27 C           3.2494   -2.5162    1.1883 C.ar    1  LIG1       -0.0329
     28 C          -3.0575    1.4417   -3.5007 C.ar    1  LIG1       -0.0163
     29 C          -5.0596    1.0834   -2.1885 C.ar    1  LIG1       -0.0581
     30 C          -4.4510    1.3796   -3.4061 C.ar    1  LIG1       -0.0581
     31 C           4.0057   -3.8725   -1.0525 C.ar    1  LIG1        0.0282
     32 C           4.4199   -3.2549    1.1188 C.ar    1  LIG1        0.0282
     33 C          -1.8359   -3.1278   -2.0563 C.3     1  LIG1        0.0805
     34 C          -0.2651    0.9059   -3.6143 C.3     1  LIG1        0.0790
     35 H          -0.7696    1.9170    1.4060 H       1  LIG1        0.1754
     36 H          -3.4458    0.3927    3.1855 H       1  LIG1        0.0653
     37 H          -4.7941   -1.6640    2.7947 H       1  LIG1        0.0622
     38 H          -1.1205   -3.9201    2.7912 H       1  LIG1        0.0833
     39 H          -4.7498    0.6032   -0.1152 H       1  LIG1        0.0655
     40 H          -4.8600   -4.0298    2.2185 H       1  LIG1        0.0278
     41 H          -3.8282   -4.8417    3.4141 H       1  LIG1        0.0278
     42 H          -3.3640   -4.8052    1.6924 H       1  LIG1        0.0278
     43 H           2.2105   -3.1619   -1.9783 H       1  LIG1        0.0640
     44 H           2.9918   -1.9939    2.1065 H       1  LIG1        0.0640
     45 H          -2.6198    1.7154   -4.4554 H       1  LIG1        0.0655
     46 H          -6.1436    1.0520   -2.1137 H       1  LIG1        0.0619
     47 H          -5.0626    1.5803   -4.2825 H       1  LIG1        0.0619
     48 H           4.3499   -4.4172   -1.9270 H       1  LIG1        0.0830
     49 H           5.0886   -3.3208    1.9722 H       1  LIG1        0.0830
     50 H          -2.7537   -3.3974   -2.5878 H       1  LIG1        0.0660
     51 H          -1.6376   -3.9102   -1.3155 H       1  LIG1        0.0660
     52 H          -1.0290   -3.0680   -2.7945 H       1  LIG1        0.0660
     53 H           0.7967    0.7439   -3.4041 H       1  LIG1        0.0660
     54 H          -0.3402    1.7010   -4.3621 H       1  LIG1        0.0660
     55 H          -0.6752   -0.0349   -3.9987 H       1  LIG1        0.0660
@<TRIPOS>BOND
     1     1     4    2
     2     1     5    2
     3     1     7    1
     4     1    14    1
     5     2    13    1
     6     2    19    1
     7     3    15    1
     8     3    33    1
     9     6    23    1
    10     6    34    1
    11     7    12    1
    12     8    12   ar
    13     8    16   ar
    14     9    15   ar
    15     9    16   ar
    16    10    14   ar
    17    10    22   ar
    18    11    31   ar
    19    11    32   ar
    20    12    13   ar
    21    13    15   ar
    22    14    17   ar
    23    16    18    1
    24    17    21   ar
    25    18    26   ar
    26    18    27   ar
    27    19    23   ar
    28    19    24   ar
    29    20    21   ar
    30    20    22   ar
    31    20    25    1
    32    23    28   ar
    33    24    29   ar
    34    26    31   ar
    35    27    32   ar
    36    28    30   ar
    37    29    30   ar
    38     7    35    1
    39    17    36    1
    40    21    37    1
    41    22    38    1
    42    24    39    1
    43    25    40    1
    44    25    41    1
    45    25    42    1
    46    26    43    1
    47    27    44    1
    48    28    45    1
    49    29    46    1
    50    30    47    1
    51    31    48    1
    52    32    49    1
    53    33    50    1
    54    33    51    1
    55    33    52    1
    56    34    53    1
    57    34    54    1
    58    34    55    1
@<TRIPOS>MOLECULE
9912992
 55 58 0 0 0
SMALL
GASTEIGER

@<TRIPOS>ATOM
      1 S          -0.5493    0.4480    3.6480 S.O2    1  LIG1        0.0908
      2 O          -2.2323    0.7395    0.1288 O.3     1  LIG1       -0.4435
      3 O          -1.9535   -1.2447   -1.6203 O.3     1  LIG1       -0.4771
      4 O          -1.8270    1.0722    3.9245 O.2     1  LIG1       -0.1484
      5 O          -0.3909   -0.9900    3.7047 O.2     1  LIG1       -0.1484
      6 O          -4.1445    1.8290    1.5529 O.3     1  LIG1       -0.4914
      7 N          -0.0051    1.0466    2.1618 N.pl3   1  LIG1       -0.1950
      8 N           1.0595   -0.6548    1.0738 N.ar    1  LIG1       -0.2073
      9 N           0.1541   -1.8318   -0.7787 N.ar    1  LIG1       -0.1899
     10 N           0.8879    2.5018    4.5275 N.ar    1  LIG1       -0.2351
     11 N           4.6896   -3.9799   -0.0987 N.ar    1  LIG1       -0.2632
     12 C          -0.0400    0.1207    1.0873 C.ar    1  LIG1        0.1882
     13 C          -1.0814    0.0046    0.1854 C.ar    1  LIG1        0.2307
     14 C           0.6515    1.1789    4.7593 C.ar    1  LIG1        0.1969
     15 C          -0.9343   -1.0408   -0.7063 C.ar    1  LIG1        0.2638
     16 C           1.1179   -1.6030    0.1267 C.ar    1  LIG1        0.1659
     17 C           1.3127    0.4037    5.6963 C.ar    1  LIG1       -0.0160
     18 C           2.3349   -2.4260    0.0538 C.ar    1  LIG1        0.0222
     19 C          -2.1758    2.1046    0.3011 C.ar    1  LIG1        0.1702
     20 C           2.5736    2.3850    6.2631 C.ar    1  LIG1       -0.0322
     21 C           2.2912    1.0289    6.4638 C.ar    1  LIG1       -0.0541
     22 C           1.8433    3.0684    5.2926 C.ar    1  LIG1        0.0327
     23 C          -3.1769    2.6844    1.0980 C.ar    1  LIG1        0.1621
     24 C          -1.1791    2.8969   -0.2817 C.ar    1  LIG1       -0.0157
     25 C           3.6284    3.0944    7.0531 C.3     1  LIG1       -0.0383
     26 C           2.6907   -3.1028   -1.1225 C.ar    1  LIG1       -0.0329
     27 C           3.1957   -2.5581    1.1527 C.ar    1  LIG1       -0.0329
     28 C          -3.1065    4.0484    1.3861 C.ar    1  LIG1       -0.0163
     29 C          -1.1221    4.2579    0.0115 C.ar    1  LIG1       -0.0581
     30 C          -2.0742    4.8280    0.8551 C.ar    1  LIG1       -0.0581
     31 C           3.8578   -3.8496   -1.1514 C.ar    1  LIG1        0.0282
     32 C           4.3378   -3.3339    1.0313 C.ar    1  LIG1        0.0282
     33 C          -1.9499   -2.5569   -2.1737 C.3     1  LIG1        0.0805
     34 C          -5.2255    2.3912    2.2824 C.3     1  LIG1        0.0790
     35 H          -0.5235    1.9069    2.0012 H       1  LIG1        0.1754
     36 H           1.0886   -0.6505    5.8203 H       1  LIG1        0.0653
     37 H           2.8358    0.4544    7.2093 H       1  LIG1        0.0622
     38 H           2.0215    4.1229    5.0949 H       1  LIG1        0.0833
     39 H          -0.4338    2.4640   -0.9435 H       1  LIG1        0.0655
     40 H           4.1349    2.4153    7.7468 H       1  LIG1        0.0278
     41 H           3.1822    3.9045    7.6386 H       1  LIG1        0.0278
     42 H           4.3862    3.5115    6.3818 H       1  LIG1        0.0278
     43 H           2.0733   -3.0407   -2.0137 H       1  LIG1        0.0640
     44 H           2.9767   -2.0679    2.0972 H       1  LIG1        0.0640
     45 H          -3.8325    4.5328    2.0311 H       1  LIG1        0.0655
     46 H          -0.3319    4.8744   -0.4109 H       1  LIG1        0.0619
     47 H          -2.0206    5.8875    1.0958 H       1  LIG1        0.0619
     48 H           4.1625   -4.3750   -2.0519 H       1  LIG1        0.0830
     49 H           5.0198   -3.4582    1.8676 H       1  LIG1        0.0830
     50 H          -2.8610   -2.6701   -2.7690 H       1  LIG1        0.0660
     51 H          -1.9688   -3.3213   -1.3883 H       1  LIG1        0.0660
     52 H          -1.0941   -2.7020   -2.8412 H       1  LIG1        0.0660
     53 H          -5.9412    1.5897    2.4891 H       1  LIG1        0.0660
     54 H          -5.7464    3.1552    1.6955 H       1  LIG1        0.0660
     55 H          -4.8845    2.7922    3.2419 H       1  LIG1        0.0660
@<TRIPOS>BOND
     1     1     4    2
     2     1     5    2
     3     1     7    1
     4     1    14    1
     5     2    13    1
     6     2    19    1
     7     3    15    1
     8     3    33    1
     9     6    23    1
    10     6    34    1
    11     7    12    1
    12     8    12   ar
    13     8    16   ar
    14     9    15   ar
    15     9    16   ar
    16    10    14   ar
    17    10    22   ar
    18    11    31   ar
    19    11    32   ar
    20    12    13   ar
    21    13    15   ar
    22    14    17   ar
    23    16    18    1
    24    17    21   ar
    25    18    26   ar
    26    18    27   ar
    27    19    23   ar
    28    19    24   ar
    29    20    21   ar
    30    20    22   ar
    31    20    25    1
    32    23    28   ar
    33    24    29   ar
    34    26    31   ar
    35    27    32   ar
    36    28    30   ar
    37    29    30   ar
    38     7    35    1
    39    17    36    1
    40    21    37    1
    41    22    38    1
    42    24    39    1
    43    25    40    1
    44    25    41    1
    45    25    42    1
    46    26    43    1
    47    27    44    1
    48    28    45    1
    49    29    46    1
    50    30    47    1
    51    31    48    1
    52    32    49    1
    53    33    50    1
    54    33    51    1
    55    33    52    1
    56    34    53    1
    57    34    54    1
    58    34    55    1
@<TRIPOS>MOLECULE
9912992
 55 58 0 0 0
SMALL
GASTEIGER

@<TRIPOS>ATOM
      1 S          -0.8253    0.6973    3.3287 S.O2    1  LIG1        0.0908
      2 O          -2.2835    0.5611    0.1887 O.3     1  LIG1       -0.4435
      3 O          -1.8118   -1.3411   -1.9123 O.3     1  LIG1       -0.4771
      4 O          -0.4179    1.6724    4.3166 O.2     1  LIG1       -0.1484
      5 O          -2.2294    0.4894    3.0412 O.2     1  LIG1       -0.1484
      6 O          -4.1155    1.9180   -1.1830 O.3     1  LIG1       -0.4914
      7 N          -0.0102    1.0713    1.8916 N.pl3   1  LIG1       -0.1950
      8 N           1.1326   -0.5491    0.7955 N.ar    1  LIG1       -0.2073
      9 N           0.2885   -1.7897   -1.0370 N.ar    1  LIG1       -0.1899
     10 N           1.2042   -0.9033    3.9842 N.ar    1  LIG1       -0.2351
     11 N           4.8110   -3.8888   -0.2420 N.ar    1  LIG1       -0.2632
     12 C          -0.0453    0.0948    0.8606 C.ar    1  LIG1        0.1882
     13 C          -1.1298   -0.1597    0.0431 C.ar    1  LIG1        0.2307
     14 C          -0.1455   -0.8912    3.8137 C.ar    1  LIG1        0.1969
     15 C          -0.8728   -1.1104   -0.9298 C.ar    1  LIG1        0.2638
     16 C           1.2487   -1.4898   -0.1525 C.ar    1  LIG1        0.1659
     17 C          -0.9707   -2.0019    3.8954 C.ar    1  LIG1       -0.0160
     18 C           2.4858   -2.2846   -0.1966 C.ar    1  LIG1        0.0222
     19 C          -3.4936   -0.0619   -0.0593 C.ar    1  LIG1        0.1702
     20 C           1.0137   -3.2951    4.3447 C.ar    1  LIG1       -0.0322
     21 C          -0.3700   -3.2274    4.1576 C.ar    1  LIG1       -0.0541
     22 C           1.7426   -2.1096    4.2651 C.ar    1  LIG1        0.0327
     23 C          -4.4550    0.6468   -0.7972 C.ar    1  LIG1        0.1621
     24 C          -3.7853   -1.3431    0.4321 C.ar    1  LIG1       -0.0157
     25 C           1.7074   -4.6020    4.5686 C.3     1  LIG1       -0.0383
     26 C           2.8313   -3.0408   -1.3262 C.ar    1  LIG1       -0.0329
     27 C           3.3585   -2.3412    0.8990 C.ar    1  LIG1       -0.0329
     28 C          -5.6619    0.0174   -1.1213 C.ar    1  LIG1       -0.0163
     29 C          -4.9912   -1.9602    0.1018 C.ar    1  LIG1       -0.0581
     30 C          -5.9216   -1.2853   -0.6847 C.ar    1  LIG1       -0.0581
     31 C           3.9842   -3.8095   -1.3039 C.ar    1  LIG1        0.0282
     32 C           4.4820   -3.1494    0.8353 C.ar    1  LIG1        0.0282
     33 C          -1.8222   -2.6965   -2.3493 C.3     1  LIG1        0.0805
     34 C          -5.1812    2.7618   -1.6008 C.3     1  LIG1        0.0790
     35 H           0.9577    1.2899    2.1325 H       1  LIG1        0.1754
     36 H          -2.0419   -1.9259    3.7419 H       1  LIG1        0.0653
     37 H          -0.9822   -4.1249    4.2086 H       1  LIG1        0.0622
     38 H           2.8205   -2.1055    4.4107 H       1  LIG1        0.0833
     39 H          -3.0722   -1.8737    1.0543 H       1  LIG1        0.0655
     40 H           0.9910   -5.4025    4.7799 H       1  LIG1        0.0278
     41 H           2.3902   -4.5332    5.4210 H       1  LIG1        0.0278
     42 H           2.2748   -4.8801    3.6743 H       1  LIG1        0.0278
     43 H           2.2118   -3.0320   -2.2183 H       1  LIG1        0.0640
     44 H           3.1619   -1.7686    1.7989 H       1  LIG1        0.0640
     45 H          -6.4152    0.5107   -1.7265 H       1  LIG1        0.0655
     46 H          -5.2032   -2.9668    0.4516 H       1  LIG1        0.0619
     47 H          -6.8576   -1.7689   -0.9543 H       1  LIG1        0.0619
     48 H           4.2786   -4.4006   -2.1664 H       1  LIG1        0.0830
     49 H           5.1644   -3.2263    1.6766 H       1  LIG1        0.0830
     50 H          -2.7156   -2.8421   -2.9644 H       1  LIG1        0.0660
     51 H          -1.8864   -3.3890   -1.5016 H       1  LIG1        0.0660
     52 H          -0.9471   -2.9198   -2.9678 H       1  LIG1        0.0660
     53 H          -4.7941    3.7830   -1.6678 H       1  LIG1        0.0660
     54 H          -6.0034    2.7668   -0.8765 H       1  LIG1        0.0660
     55 H          -5.5345    2.4725   -2.5955 H       1  LIG1        0.0660
@<TRIPOS>BOND
     1     1     4    2
     2     1     5    2
     3     1     7    1
     4     1    14    1
     5     2    13    1
     6     2    19    1
     7     3    15    1
     8     3    33    1
     9     6    23    1
    10     6    34    1
    11     7    12    1
    12     8    12   ar
    13     8    16   ar
    14     9    15   ar
    15     9    16   ar
    16    10    14   ar
    17    10    22   ar
    18    11    31   ar
    19    11    32   ar
    20    12    13   ar
    21    13    15   ar
    22    14    17   ar
    23    16    18    1
    24    17    21   ar
    25    18    26   ar
    26    18    27   ar
    27    19    23   ar
    28    19    24   ar
    29    20    21   ar
    30    20    22   ar
    31    20    25    1
    32    23    28   ar
    33    24    29   ar
    34    26    31   ar
    35    27    32   ar
    36    28    30   ar
    37    29    30   ar
    38     7    35    1
    39    17    36    1
    40    21    37    1
    41    22    38    1
    42    24    39    1
    43    25    40    1
    44    25    41    1
    45    25    42    1
    46    26    43    1
    47    27    44    1
    48    28    45    1
    49    29    46    1
    50    30    47    1
    51    31    48    1
    52    32    49    1
    53    33    50    1
    54    33    51    1
    55    33    52    1
    56    34    53    1
    57    34    54    1
    58    34    55    1
@<TRIPOS>MOLECULE
9912992
 55 58 0 0 0
SMALL
GASTEIGER

@<TRIPOS>ATOM
      1 S          -0.5016    0.4201    3.6187 S.O2    1  LIG1        0.0908
      2 O          -2.2056    0.7244    0.0994 O.3     1  LIG1       -0.4435
      3 O          -1.8947   -1.2144   -1.6845 O.3     1  LIG1       -0.4771
      4 O          -1.7831    1.0259    3.9106 O.2     1  LIG1       -0.1484
      5 O          -0.3239   -1.0194    3.6627 O.2     1  LIG1       -0.1484
      6 O          -4.0823    1.7301    1.6340 O.3     1  LIG1       -0.4914
      7 N           0.0286    1.0393    2.1347 N.pl3   1  LIG1       -0.1950
      8 N           1.1064   -0.6378    1.0258 N.ar    1  LIG1       -0.2073
      9 N           0.2067   -1.8164   -0.8254 N.ar    1  LIG1       -0.1899
     10 N           0.9193    2.4821    4.5064 N.ar    1  LIG1       -0.2351
     11 N           4.7362   -3.9864   -0.1306 N.ar    1  LIG1       -0.2632
     12 C          -0.0020    0.1245    1.0501 C.ar    1  LIG1        0.1882
     13 C          -1.0441    0.0048    0.1497 C.ar    1  LIG1        0.2307
     14 C           0.6961    1.1551    4.7316 C.ar    1  LIG1        0.1969
     15 C          -0.8811   -1.0234   -0.7603 C.ar    1  LIG1        0.2638
     16 C           1.1690   -1.5890    0.0820 C.ar    1  LIG1        0.1659
     17 C           1.3614    0.3826    5.6681 C.ar    1  LIG1       -0.0160
     18 C           2.3860   -2.4181    0.0165 C.ar    1  LIG1        0.0222
     19 C          -2.1706    2.0835    0.3154 C.ar    1  LIG1        0.1702
     20 C           2.5976    2.3757    6.2503 C.ar    1  LIG1       -0.0322
     21 C           2.3282    1.0155    6.4440 C.ar    1  LIG1       -0.0541
     22 C           1.8650    3.0555    5.2789 C.ar    1  LIG1        0.0327
     23 C          -3.1477    2.6174    1.1714 C.ar    1  LIG1        0.1621
     24 C          -1.2089    2.9103   -0.2776 C.ar    1  LIG1       -0.0157
     25 C           3.6396    3.0926    7.0506 C.3     1  LIG1       -0.0383
     26 C           2.5290   -3.4406   -0.9343 C.ar    1  LIG1       -0.0329
     27 C           3.4606   -2.2149    0.8955 C.ar    1  LIG1       -0.0329
     28 C          -3.0969    3.9750    1.4916 C.ar    1  LIG1       -0.0163
     29 C          -1.1664    4.2629    0.0542 C.ar    1  LIG1       -0.0581
     30 C          -2.0999    4.7900    0.9457 C.ar    1  LIG1       -0.0581
     31 C           3.6992   -4.1831   -0.9685 C.ar    1  LIG1        0.0282
     32 C           4.5925   -3.0076    0.7849 C.ar    1  LIG1        0.0282
     33 C          -1.7220   -2.3721   -2.4942 C.3     1  LIG1        0.0805
     34 C          -4.9614    2.1788    2.6552 C.3     1  LIG1        0.0790
     35 H          -0.4955    1.8982    1.9854 H       1  LIG1        0.1754
     36 H           1.1476   -0.6739    5.7863 H       1  LIG1        0.0653
     37 H           2.8759    0.4431    7.1892 H       1  LIG1        0.0622
     38 H           2.0332    4.1125    5.0870 H       1  LIG1        0.0833
     39 H          -0.4810    2.5095   -0.9775 H       1  LIG1        0.0655
     40 H           4.1443    2.4175    7.7493 H       1  LIG1        0.0278
     41 H           3.1824    3.8999    7.6315 H       1  LIG1        0.0278
     42 H           4.4006    3.5149    6.3859 H       1  LIG1        0.0278
     43 H           1.7391   -3.6605   -1.6463 H       1  LIG1        0.0640
     44 H           3.4217   -1.4448    1.6607 H       1  LIG1        0.0640
     45 H          -3.8163    4.4288    2.1652 H       1  LIG1        0.0655
     46 H          -0.4044    4.9070   -0.3779 H       1  LIG1        0.0619
     47 H          -2.0615    5.8444    1.2106 H       1  LIG1        0.0619
     48 H           3.8348   -4.9785   -1.6959 H       1  LIG1        0.0830
     49 H           5.4390   -2.8676    1.4509 H       1  LIG1        0.0830
     50 H          -2.5977   -2.4581   -3.1447 H       1  LIG1        0.0660
     51 H          -1.6698   -3.2808   -1.8844 H       1  LIG1        0.0660
     52 H          -0.8389   -2.2777   -3.1354 H       1  LIG1        0.0660
     53 H          -5.5932    1.3338    2.9457 H       1  LIG1        0.0660
     54 H          -5.6198    2.9718    2.2860 H       1  LIG1        0.0660
     55 H          -4.4081    2.5041    3.5419 H       1  LIG1        0.0660
@<TRIPOS>BOND
     1     1     4    2
     2     1     5    2
     3     1     7    1
     4     1    14    1
     5     2    13    1
     6     2    19    1
     7     3    15    1
     8     3    33    1
     9     6    23    1
    10     6    34    1
    11     7    12    1
    12     8    12   ar
    13     8    16   ar
    14     9    15   ar
    15     9    16   ar
    16    10    14   ar
    17    10    22   ar
    18    11    31   ar
    19    11    32   ar
    20    12    13   ar
    21    13    15   ar
    22    14    17   ar
    23    16    18    1
    24    17    21   ar
    25    18    26   ar
    26    18    27   ar
    27    19    23   ar
    28    19    24   ar
    29    20    21   ar
    30    20    22   ar
    31    20    25    1
    32    23    28   ar
    33    24    29   ar
    34    26    31   ar
    35    27    32   ar
    36    28    30   ar
    37    29    30   ar
    38     7    35    1
    39    17    36    1
    40    21    37    1
    41    22    38    1
    42    24    39    1
    43    25    40    1
    44    25    41    1
    45    25    42    1
    46    26    43    1
    47    27    44    1
    48    28    45    1
    49    29    46    1
    50    30    47    1
    51    31    48    1
    52    32    49    1
    53    33    50    1
    54    33    51    1
    55    33    52    1
    56    34    53    1
    57    34    54    1
    58    34    55    1
@<TRIPOS>MOLECULE
9912992
 55 58 0 0 0
SMALL
GASTEIGER

@<TRIPOS>ATOM
      1 S           0.3602    2.4885    1.4568 S.O2    1  LIG1        0.0908
      2 O          -2.2780    0.5413    0.2423 O.3     1  LIG1       -0.4435
      3 O          -1.7705   -1.2793   -1.9208 O.3     1  LIG1       -0.4771
      4 O           1.7958    2.5515    1.6472 O.2     1  LIG1       -0.1484
      5 O          -0.2344    2.7520    0.1627 O.2     1  LIG1       -0.1484
      6 O          -4.1573    1.9790   -0.9544 O.3     1  LIG1       -0.4914
      7 N          -0.1241    0.9508    2.0280 N.pl3   1  LIG1       -0.1950
      8 N           1.0415   -0.7249    1.0052 N.ar    1  LIG1       -0.2073
      9 N           0.2902   -1.8231   -0.9636 N.ar    1  LIG1       -0.1899
     10 N           0.3743    4.0996    3.5830 N.ar    1  LIG1       -0.2351
     11 N           4.8320   -3.8970   -0.1008 N.ar    1  LIG1       -0.2632
     12 C          -0.1032   -0.0281    0.9936 C.ar    1  LIG1        0.1882
     13 C          -1.1359   -0.1961    0.0934 C.ar    1  LIG1        0.2307
     14 C          -0.4452    3.5587    2.6446 C.ar    1  LIG1        0.1969
     15 C          -0.8572   -1.1115   -0.9005 C.ar    1  LIG1        0.2638
     16 C           1.1984   -1.6033    0.0029 C.ar    1  LIG1        0.1659
     17 C          -1.8091    3.7915    2.5484 C.ar    1  LIG1       -0.0160
     18 C           2.4454   -2.3851   -0.0343 C.ar    1  LIG1        0.0222
     19 C          -3.4993   -0.0661    0.0251 C.ar    1  LIG1        0.1702
     20 C          -1.5739    5.2344    4.4701 C.ar    1  LIG1       -0.0322
     21 C          -2.3777    4.6469    3.4884 C.ar    1  LIG1       -0.0541
     22 C          -0.2121    4.9365    4.4644 C.ar    1  LIG1        0.0327
     23 C          -4.4919    0.6936   -0.6145 C.ar    1  LIG1        0.1621
     24 C          -3.7852   -1.3614    0.4778 C.ar    1  LIG1       -0.0157
     25 C          -2.1337    6.1937    5.4740 C.3     1  LIG1       -0.0383
     26 C           3.2955   -2.4620    1.0787 C.ar    1  LIG1       -0.0329
     27 C           2.8373   -3.0844   -1.1855 C.ar    1  LIG1       -0.0329
     28 C          -5.7289    0.1038   -0.8936 C.ar    1  LIG1       -0.0163
     29 C          -5.0272   -1.9346    0.2063 C.ar    1  LIG1       -0.0581
     30 C          -5.9904   -1.2095   -0.4910 C.ar    1  LIG1       -0.0581
     31 C           4.4552   -3.2183    1.0001 C.ar    1  LIG1        0.0282
     32 C           4.0184   -3.8105   -1.1717 C.ar    1  LIG1        0.0282
     33 C          -1.6749   -2.5489   -2.5561 C.3     1  LIG1        0.0805
     34 C          -5.2392    2.8851   -1.1333 C.3     1  LIG1        0.0790
     35 H           0.6050    0.6805    2.6921 H       1  LIG1        0.1754
     36 H          -2.4066    3.3267    1.7719 H       1  LIG1        0.0653
     37 H          -3.4439    4.8551    3.4469 H       1  LIG1        0.0622
     38 H           0.4652    5.3811    5.1895 H       1  LIG1        0.0833
     39 H          -3.0483   -1.9364    1.0280 H       1  LIG1        0.0655
     40 H          -3.2274    6.1505    5.4985 H       1  LIG1        0.0278
     41 H          -1.8345    7.2165    5.2238 H       1  LIG1        0.0278
     42 H          -1.7725    5.9504    6.4787 H       1  LIG1        0.0278
     43 H           3.0613   -1.9421    2.0032 H       1  LIG1        0.0640
     44 H           2.2369   -3.0596   -2.0898 H       1  LIG1        0.0640
     45 H          -6.5014    0.6363   -1.4373 H       1  LIG1        0.0655
     46 H          -5.2400   -2.9496    0.5318 H       1  LIG1        0.0619
     47 H          -6.9516   -1.6636   -0.7197 H       1  LIG1        0.0619
     48 H           5.1275   -3.2980    1.8493 H       1  LIG1        0.0830
     49 H           4.3494   -4.3552   -2.0510 H       1  LIG1        0.0830
     50 H          -2.5330   -2.6511   -3.2277 H       1  LIG1        0.0660
     51 H          -1.7315   -3.3644   -1.8227 H       1  LIG1        0.0660
     52 H          -0.7650   -2.6263   -3.1564 H       1  LIG1        0.0660
     53 H          -4.8262    3.8974   -1.1614 H       1  LIG1        0.0660
     54 H          -5.9448    2.8383   -0.2953 H       1  LIG1        0.0660
     55 H          -5.7465    2.7036   -2.0852 H       1  LIG1        0.0660
@<TRIPOS>BOND
     1     1     4    2
     2     1     5    2
     3     1     7    1
     4     1    14    1
     5     2    13    1
     6     2    19    1
     7     3    15    1
     8     3    33    1
     9     6    23    1
    10     6    34    1
    11     7    12    1
    12     8    12   ar
    13     8    16   ar
    14     9    15   ar
    15     9    16   ar
    16    10    14   ar
    17    10    22   ar
    18    11    31   ar
    19    11    32   ar
    20    12    13   ar
    21    13    15   ar
    22    14    17   ar
    23    16    18    1
    24    17    21   ar
    25    18    26   ar
    26    18    27   ar
    27    19    23   ar
    28    19    24   ar
    29    20    21   ar
    30    20    22   ar
    31    20    25    1
    32    23    28   ar
    33    24    29   ar
    34    26    31   ar
    35    27    32   ar
    36    28    30   ar
    37    29    30   ar
    38     7    35    1
    39    17    36    1
    40    21    37    1
    41    22    38    1
    42    24    39    1
    43    25    40    1
    44    25    41    1
    45    25    42    1
    46    26    43    1
    47    27    44    1
    48    28    45    1
    49    29    46    1
    50    30    47    1
    51    31    48    1
    52    32    49    1
    53    33    50    1
    54    33    51    1
    55    33    52    1
    56    34    53    1
    57    34    54    1
    58    34    55    1
@<TRIPOS>MOLECULE
9912992
 55 58 0 0 0
SMALL
GASTEIGER

@<TRIPOS>ATOM
      1 S           0.3965    2.4595    1.5113 S.O2    1  LIG1        0.0908
      2 O          -2.2462    0.5813    0.0995 O.3     1  LIG1       -0.4435
      3 O          -1.6960   -1.2398   -2.0260 O.3     1  LIG1       -0.4771
      4 O           1.8212    2.4797    1.7659 O.2     1  LIG1       -0.1484
      5 O          -0.1361    2.7868    0.2023 O.2     1  LIG1       -0.1484
      6 O          -4.3792    1.9530   -1.2985 O.3     1  LIG1       -0.4914
      7 N          -0.1962    0.9360    1.9953 N.pl3   1  LIG1       -0.1950
      8 N           1.0295   -0.7195    0.9905 N.ar    1  LIG1       -0.2073
      9 N           0.3314   -1.8140   -1.0009 N.ar    1  LIG1       -0.1899
     10 N          -0.2818    3.1340    3.9889 N.ar    1  LIG1       -0.2351
     11 N           4.8676   -3.8677   -0.0472 N.ar    1  LIG1       -0.2632
     12 C          -0.1176   -0.0279    0.9534 C.ar    1  LIG1        0.1882
     13 C          -1.1126   -0.1779    0.0087 C.ar    1  LIG1        0.2307
     14 C          -0.3882    3.5471    2.6959 C.ar    1  LIG1        0.1969
     15 C          -0.8079   -1.0889   -0.9804 C.ar    1  LIG1        0.2638
     16 C           1.2137   -1.5973   -0.0090 C.ar    1  LIG1        0.1659
     17 C          -1.0751    4.6730    2.2706 C.ar    1  LIG1       -0.0160
     18 C           2.4666   -2.3729   -0.0231 C.ar    1  LIG1        0.0222
     19 C          -3.4725   -0.0167   -0.0940 C.ar    1  LIG1        0.1702
     20 C          -1.6036    5.0771    4.5903 C.ar    1  LIG1       -0.0322
     21 C          -1.6899    5.4520    3.2453 C.ar    1  LIG1       -0.0541
     22 C          -0.8858    3.9232    4.9030 C.ar    1  LIG1        0.0327
     23 C          -4.4703    0.6851   -0.7869 C.ar    1  LIG1        0.1621
     24 C          -3.7546   -1.2957    0.4141 C.ar    1  LIG1       -0.0157
     25 C          -2.2241    5.9038    5.6728 C.3     1  LIG1       -0.0383
     26 C           2.6758   -3.4123   -0.9427 C.ar    1  LIG1       -0.0329
     27 C           3.5068   -2.1053    0.8799 C.ar    1  LIG1       -0.0329
     28 C          -5.6895    0.0540   -1.0601 C.ar    1  LIG1       -0.0163
     29 C          -4.9832   -1.9053    0.1535 C.ar    1  LIG1       -0.0581
     30 C          -5.9456   -1.2362   -0.5962 C.ar    1  LIG1       -0.0581
     31 C           3.8689   -4.1177   -0.9165 C.ar    1  LIG1        0.0282
     32 C           4.6663   -2.8640    0.8297 C.ar    1  LIG1        0.0282
     33 C          -1.4407   -2.3777   -2.8404 C.3     1  LIG1        0.0805
     34 C          -3.6388    2.8870   -0.5208 C.3     1  LIG1        0.0790
     35 H           0.4220    0.6349    2.7513 H       1  LIG1        0.1754
     36 H          -1.1329    4.9407    1.2208 H       1  LIG1        0.0653
     37 H          -2.2332    6.3478    2.9530 H       1  LIG1        0.0622
     38 H          -0.7758    3.5945    5.9339 H       1  LIG1        0.0833
     39 H          -3.0194   -1.8375    1.0024 H       1  LIG1        0.0655
     40 H          -2.9234    6.6394    5.2612 H       1  LIG1        0.0278
     41 H          -1.4481    6.4405    6.2275 H       1  LIG1        0.0278
     42 H          -2.7858    5.2680    6.3650 H       1  LIG1        0.0278
     43 H           1.9195   -3.6750   -1.6764 H       1  LIG1        0.0640
     44 H           3.4250   -1.3087    1.6140 H       1  LIG1        0.0640
     45 H          -6.4488    0.5810   -1.6332 H       1  LIG1        0.0655
     46 H          -5.1848   -2.9054    0.5280 H       1  LIG1        0.0619
     47 H          -6.8986   -1.7111   -0.8141 H       1  LIG1        0.0619
     48 H           4.0554   -4.9267   -1.6172 H       1  LIG1        0.0830
     49 H           5.4876   -2.6747    1.5154 H       1  LIG1        0.0830
     50 H          -2.2530   -2.4544   -3.5700 H       1  LIG1        0.0660
     51 H          -1.4400   -3.2992   -2.2467 H       1  LIG1        0.0660
     52 H          -0.5024   -2.2657   -3.3943 H       1  LIG1        0.0660
     53 H          -4.0377    3.8842   -0.7307 H       1  LIG1        0.0660
     54 H          -2.5911    2.8829   -0.8289 H       1  LIG1        0.0660
     55 H          -3.7401    2.7158    0.5569 H       1  LIG1        0.0660
@<TRIPOS>BOND
     1     1     4    2
     2     1     5    2
     3     1     7    1
     4     1    14    1
     5     2    13    1
     6     2    19    1
     7     3    15    1
     8     3    33    1
     9     6    23    1
    10     6    34    1
    11     7    12    1
    12     8    12   ar
    13     8    16   ar
    14     9    15   ar
    15     9    16   ar
    16    10    14   ar
    17    10    22   ar
    18    11    31   ar
    19    11    32   ar
    20    12    13   ar
    21    13    15   ar
    22    14    17   ar
    23    16    18    1
    24    17    21   ar
    25    18    26   ar
    26    18    27   ar
    27    19    23   ar
    28    19    24   ar
    29    20    21   ar
    30    20    22   ar
    31    20    25    1
    32    23    28   ar
    33    24    29   ar
    34    26    31   ar
    35    27    32   ar
    36    28    30   ar
    37    29    30   ar
    38     7    35    1
    39    17    36    1
    40    21    37    1
    41    22    38    1
    42    24    39    1
    43    25    40    1
    44    25    41    1
    45    25    42    1
    46    26    43    1
    47    27    44    1
    48    28    45    1
    49    29    46    1
    50    30    47    1
    51    31    48    1
    52    32    49    1
    53    33    50    1
    54    33    51    1
    55    33    52    1
    56    34    53    1
    57    34    54    1
    58    34    55    1
@<TRIPOS>MOLECULE
9912992
 55 58 0 0 0
SMALL
GASTEIGER

@<TRIPOS>ATOM
      1 S          -0.7281    0.7149    3.2451 S.O2    1  LIG1        0.0908
      2 O          -2.2346    0.5393    0.1975 O.3     1  LIG1       -0.4435
      3 O          -1.8106   -1.5212   -1.7870 O.3     1  LIG1       -0.4771
      4 O          -1.9115    1.5150    3.4889 O.2     1  LIG1       -0.1484
      5 O          -0.7655   -0.7321    3.3301 O.2     1  LIG1       -0.1484
      6 O          -4.2030    1.9512   -1.2785 O.3     1  LIG1       -0.4914
      7 N          -0.0534    1.1921    1.7608 N.pl3   1  LIG1       -0.1950
      8 N           1.2075   -0.4452    0.7709 N.ar    1  LIG1       -0.2073
      9 N           0.3284   -1.8795   -0.9114 N.ar    1  LIG1       -0.1899
     10 N           1.1724    2.4202    3.9613 N.ar    1  LIG1       -0.2351
     11 N           4.9347   -3.7817   -0.0430 N.ar    1  LIG1       -0.2632
     12 C           0.0071    0.1533    0.8019 C.ar    1  LIG1        0.1882
     13 C          -1.0960   -0.2011    0.0488 C.ar    1  LIG1        0.2307
     14 C           0.5391    1.2869    4.3831 C.ar    1  LIG1        0.1969
     15 C          -0.8428   -1.2096   -0.8560 C.ar    1  LIG1        0.2638
     16 C           1.3038   -1.4836   -0.0745 C.ar    1  LIG1        0.1659
     17 C           0.8666    0.5632    5.5152 C.ar    1  LIG1       -0.0160
     18 C           2.5527   -2.2625   -0.0726 C.ar    1  LIG1        0.0222
     19 C          -3.4651   -0.0282   -0.0230 C.ar    1  LIG1        0.1702
     20 C           2.5324    2.2590    5.9593 C.ar    1  LIG1       -0.0322
     21 C           1.8842    1.0705    6.3181 C.ar    1  LIG1       -0.0541
     22 C           2.1313    2.8925    4.7847 C.ar    1  LIG1        0.0327
     23 C          -4.4076    0.6962   -0.7652 C.ar    1  LIG1        0.1621
     24 C          -3.8128   -1.2765    0.5110 C.ar    1  LIG1       -0.0157
     25 C           3.5788    2.8734    6.8362 C.3     1  LIG1       -0.0383
     26 C           2.5994   -3.5642   -0.5958 C.ar    1  LIG1       -0.0329
     27 C           3.7406   -1.7486    0.4661 C.ar    1  LIG1       -0.0329
     28 C          -5.6374    0.1137   -1.0791 C.ar    1  LIG1       -0.0163
     29 C          -5.0551   -1.8409    0.2148 C.ar    1  LIG1       -0.0581
     30 C          -5.9596   -1.1542   -0.5942 C.ar    1  LIG1       -0.0581
     31 C           3.7897   -4.2725   -0.5566 C.ar    1  LIG1        0.0282
     32 C           4.8854   -2.5298    0.4547 C.ar    1  LIG1        0.0282
     33 C          -1.4786   -2.6069   -2.6424 C.3     1  LIG1        0.0805
     34 C          -3.7068    2.8867   -0.3213 C.3     1  LIG1        0.0790
     35 H           0.8643    1.6099    1.9322 H       1  LIG1        0.1754
     36 H           0.3518   -0.3569    5.7683 H       1  LIG1        0.0653
     37 H           2.1660    0.5417    7.2256 H       1  LIG1        0.0622
     38 H           2.5843    3.8304    4.4694 H       1  LIG1        0.0833
     39 H          -3.1189   -1.8226    1.1440 H       1  LIG1        0.0655
     40 H           4.0640    2.1167    7.4609 H       1  LIG1        0.0278
     41 H           3.1257    3.6279    7.4870 H       1  LIG1        0.0278
     42 H           4.3599    3.3486    6.2332 H       1  LIG1        0.0278
     43 H           1.7149   -4.0306   -1.0205 H       1  LIG1        0.0640
     44 H           3.7797   -0.7486    0.8877 H       1  LIG1        0.0640
     45 H          -6.3502    0.6581   -1.6934 H       1  LIG1        0.0655
     46 H          -5.3134   -2.8206    0.6077 H       1  LIG1        0.0619
     47 H          -6.9215   -1.5984   -0.8375 H       1  LIG1        0.0619
     48 H           3.8503   -5.2846   -0.9459 H       1  LIG1        0.0830
     49 H           5.8210   -2.1565    0.8607 H       1  LIG1        0.0830
     50 H          -2.3268   -2.7742   -3.3135 H       1  LIG1        0.0660
     51 H          -1.3198   -3.5280   -2.0703 H       1  LIG1        0.0660
     52 H          -0.6056   -2.3722   -3.2609 H       1  LIG1        0.0660
     53 H          -4.0990    3.8739   -0.5855 H       1  LIG1        0.0660
     54 H          -2.6151    2.9405   -0.3776 H       1  LIG1        0.0660
     55 H          -4.0321    2.6642    0.7026 H       1  LIG1        0.0660
@<TRIPOS>BOND
     1     1     4    2
     2     1     5    2
     3     1     7    1
     4     1    14    1
     5     2    13    1
     6     2    19    1
     7     3    15    1
     8     3    33    1
     9     6    23    1
    10     6    34    1
    11     7    12    1
    12     8    12   ar
    13     8    16   ar
    14     9    15   ar
    15     9    16   ar
    16    10    14   ar
    17    10    22   ar
    18    11    31   ar
    19    11    32   ar
    20    12    13   ar
    21    13    15   ar
    22    14    17   ar
    23    16    18    1
    24    17    21   ar
    25    18    26   ar
    26    18    27   ar
    27    19    23   ar
    28    19    24   ar
    29    20    21   ar
    30    20    22   ar
    31    20    25    1
    32    23    28   ar
    33    24    29   ar
    34    26    31   ar
    35    27    32   ar
    36    28    30   ar
    37    29    30   ar
    38     7    35    1
    39    17    36    1
    40    21    37    1
    41    22    38    1
    42    24    39    1
    43    25    40    1
    44    25    41    1
    45    25    42    1
    46    26    43    1
    47    27    44    1
    48    28    45    1
    49    29    46    1
    50    30    47    1
    51    31    48    1
    52    32    49    1
    53    33    50    1
    54    33    51    1
    55    33    52    1
    56    34    53    1
    57    34    54    1
    58    34    55    1
@<TRIPOS>MOLECULE
9912992
 55 58 0 0 0
SMALL
GASTEIGER

@<TRIPOS>ATOM
      1 S          -0.7942    0.6066    3.3768 S.O2    1  LIG1        0.0908
      2 O          -2.3175    0.5840    0.1186 O.3     1  LIG1       -0.4435
      3 O          -1.6767   -1.1972   -2.0259 O.3     1  LIG1       -0.4771
      4 O          -1.4855    1.6892    4.0470 O.2     1  LIG1       -0.1484
      5 O          -1.4051   -0.6970    3.2201 O.2     1  LIG1       -0.1484
      6 O          -2.9016   -2.0722    0.9610 O.3     1  LIG1       -0.4914
      7 N          -0.2316    1.1916    1.8786 N.pl3   1  LIG1       -0.1950
      8 N           1.0929   -0.4182    0.8963 N.ar    1  LIG1       -0.2073
      9 N           0.3769   -1.6671   -1.0024 N.ar    1  LIG1       -0.1899
     10 N           1.6923    1.3098    3.9819 N.ar    1  LIG1       -0.2351
     11 N           4.8575   -3.7164    0.0787 N.ar    1  LIG1       -0.2632
     12 C          -0.1063    0.1857    0.8804 C.ar    1  LIG1        0.1882
     13 C          -1.1385   -0.0980    0.0053 C.ar    1  LIG1        0.2307
     14 C           0.7463    0.3675    4.2646 C.ar    1  LIG1        0.1969
     15 C          -0.7965   -1.0015   -0.9793 C.ar    1  LIG1        0.2638
     16 C           1.2634   -1.3704   -0.0362 C.ar    1  LIG1        0.1659
     17 C           0.9070   -0.7024    5.1270 C.ar    1  LIG1       -0.0160
     18 C           2.4998   -2.1652    0.0019 C.ar    1  LIG1        0.0222
     19 C          -3.5090   -0.0618   -0.1491 C.ar    1  LIG1        0.1702
     20 C           3.1137    0.1675    5.5824 C.ar    1  LIG1       -0.0322
     21 C           2.1205   -0.7951    5.8005 C.ar    1  LIG1       -0.0541
     22 C           2.8459    1.1915    4.6739 C.ar    1  LIG1        0.0327
     23 C          -3.8342   -1.3737    0.2429 C.ar    1  LIG1        0.1621
     24 C          -4.4504    0.7205   -0.8291 C.ar    1  LIG1       -0.0157
     25 C           4.4009    0.1431    6.3465 C.3     1  LIG1       -0.0383
     26 C           3.6704   -1.6806    0.5996 C.ar    1  LIG1       -0.0329
     27 C           2.5488   -3.4534   -0.5542 C.ar    1  LIG1       -0.0329
     28 C          -5.0960   -1.8857   -0.0835 C.ar    1  LIG1       -0.0163
     29 C          -5.6993    0.1963   -1.1558 C.ar    1  LIG1       -0.0581
     30 C          -6.0197   -1.1070   -0.7866 C.ar    1  LIG1       -0.0581
     31 C           4.8050   -2.4768    0.6076 C.ar    1  LIG1        0.0282
     32 C           3.7266   -4.1791   -0.4891 C.ar    1  LIG1        0.0282
     33 C          -1.2350   -2.1401   -2.9936 C.3     1  LIG1        0.0805
     34 C          -3.0000   -3.4894    0.9434 C.3     1  LIG1        0.0790
     35 H           0.7008    1.5750    2.0672 H       1  LIG1        0.1754
     36 H           0.1160   -1.4280    5.2840 H       1  LIG1        0.0653
     37 H           2.2832   -1.6097    6.5029 H       1  LIG1        0.0622
     38 H           3.5762    1.9746    4.4828 H       1  LIG1        0.0833
     39 H          -4.2020    1.7406   -1.1099 H       1  LIG1        0.0655
     40 H           4.5836   -0.8433    6.7854 H       1  LIG1        0.0278
     41 H           4.3697    0.8803    7.1551 H       1  LIG1        0.0278
     42 H           5.2447    0.3707    5.6872 H       1  LIG1        0.0278
     43 H           3.7039   -0.6920    1.0476 H       1  LIG1        0.0640
     44 H           1.6745   -3.8944   -1.0245 H       1  LIG1        0.0640
     45 H          -5.3970   -2.8842    0.2154 H       1  LIG1        0.0655
     46 H          -6.4221    0.8064   -1.6908 H       1  LIG1        0.0619
     47 H          -6.9967   -1.5157   -1.0321 H       1  LIG1        0.0619
     48 H           5.7311   -2.1259    1.0537 H       1  LIG1        0.0830
     49 H           3.7891   -5.1817   -0.9030 H       1  LIG1        0.0830
     50 H          -2.0159   -2.2255   -3.7554 H       1  LIG1        0.0660
     51 H          -1.0943   -3.1310   -2.5484 H       1  LIG1        0.0660
     52 H          -0.3212   -1.7975   -3.4909 H       1  LIG1        0.0660
     53 H          -2.0744   -3.8928    1.3656 H       1  LIG1        0.0660
     54 H          -3.0920   -3.8726   -0.0789 H       1  LIG1        0.0660
     55 H          -3.8289   -3.8323    1.5700 H       1  LIG1        0.0660
@<TRIPOS>BOND
     1     1     4    2
     2     1     5    2
     3     1     7    1
     4     1    14    1
     5     2    13    1
     6     2    19    1
     7     3    15    1
     8     3    33    1
     9     6    23    1
    10     6    34    1
    11     7    12    1
    12     8    12   ar
    13     8    16   ar
    14     9    15   ar
    15     9    16   ar
    16    10    14   ar
    17    10    22   ar
    18    11    31   ar
    19    11    32   ar
    20    12    13   ar
    21    13    15   ar
    22    14    17   ar
    23    16    18    1
    24    17    21   ar
    25    18    26   ar
    26    18    27   ar
    27    19    23   ar
    28    19    24   ar
    29    20    21   ar
    30    20    22   ar
    31    20    25    1
    32    23    28   ar
    33    24    29   ar
    34    26    31   ar
    35    27    32   ar
    36    28    30   ar
    37    29    30   ar
    38     7    35    1
    39    17    36    1
    40    21    37    1
    41    22    38    1
    42    24    39    1
    43    25    40    1
    44    25    41    1
    45    25    42    1
    46    26    43    1
    47    27    44    1
    48    28    45    1
    49    29    46    1
    50    30    47    1
    51    31    48    1
    52    32    49    1
    53    33    50    1
    54    33    51    1
    55    33    52    1
    56    34    53    1
    57    34    54    1
    58    34    55    1
@<TRIPOS>MOLECULE
9912992
 55 58 0 0 0
SMALL
GASTEIGER

@<TRIPOS>ATOM
      1 S          -0.6673    0.6775    3.2925 S.O2    1  LIG1        0.0908
      2 O          -2.2152    0.5388    0.1956 O.3     1  LIG1       -0.4435
      3 O          -1.8042   -1.4601   -1.8338 O.3     1  LIG1       -0.4771
      4 O          -2.1079    0.7904    3.2284 O.2     1  LIG1       -0.1484
      5 O          -0.0346   -0.5551    3.7241 O.2     1  LIG1       -0.1484
      6 O          -4.1789    1.9697   -1.2742 O.3     1  LIG1       -0.4914
      7 N           0.0072    1.1166    1.8018 N.pl3   1  LIG1       -0.1950
      8 N           1.1978   -0.5402    0.7881 N.ar    1  LIG1       -0.2073
      9 N           0.3198   -1.8893   -0.9555 N.ar    1  LIG1       -0.1899
     10 N          -0.0121    3.2076    3.7819 N.ar    1  LIG1       -0.2351
     11 N           4.9148   -3.8657   -0.1256 N.ar    1  LIG1       -0.2632
     12 C           0.0109    0.0827    0.8362 C.ar    1  LIG1        0.1882
     13 C          -1.0892   -0.2220    0.0590 C.ar    1  LIG1        0.2307
     14 C          -0.0524    1.9786    4.3649 C.ar    1  LIG1        0.1969
     15 C          -0.8420   -1.2041   -0.8789 C.ar    1  LIG1        0.2638
     16 C           1.2924   -1.5461   -0.0937 C.ar    1  LIG1        0.1659
     17 C           0.4518    1.6796    5.6198 C.ar    1  LIG1       -0.0160
     18 C           2.5381   -2.3328   -0.1122 C.ar    1  LIG1        0.0222
     19 C          -3.4520   -0.0197   -0.0264 C.ar    1  LIG1        0.1702
     20 C           1.0320    4.0172    5.8122 C.ar    1  LIG1       -0.0322
     21 C           0.9990    2.7277    6.3550 C.ar    1  LIG1       -0.0541
     22 C           0.5026    4.2008    4.5368 C.ar    1  LIG1        0.0327
     23 C          -4.3897    0.7127   -0.7673 C.ar    1  LIG1        0.1621
     24 C          -3.8072   -1.2693    0.4979 C.ar    1  LIG1       -0.0157
     25 C           1.5687    5.1789    6.5886 C.3     1  LIG1       -0.0383
     26 C           2.7458   -3.3573   -1.0482 C.ar    1  LIG1       -0.0329
     27 C           3.5640   -2.1053    0.8180 C.ar    1  LIG1       -0.0329
     28 C          -5.6214    0.1369   -1.0880 C.ar    1  LIG1       -0.0163
     29 C          -5.0509   -1.8277    0.1948 C.ar    1  LIG1       -0.0581
     30 C          -5.9506   -1.1323   -0.6116 C.ar    1  LIG1       -0.0581
     31 C           3.9267   -4.0825   -1.0159 C.ar    1  LIG1        0.0282
     32 C           4.7108   -2.8825    0.7732 C.ar    1  LIG1        0.0282
     33 C          -1.5157   -2.5682   -2.6766 C.3     1  LIG1        0.0805
     34 C          -3.6852    2.8973   -0.3070 C.3     1  LIG1        0.0790
     35 H           0.9372    1.5071    1.9363 H       1  LIG1        0.1754
     36 H           0.4313    0.6688    6.0134 H       1  LIG1        0.0653
     37 H           1.4009    2.5353    7.3476 H       1  LIG1        0.0622
     38 H           0.4813    5.1849    4.0734 H       1  LIG1        0.0833
     39 H          -3.1192   -1.8215    1.1315 H       1  LIG1        0.0655
     40 H           2.2419    4.8456    7.3853 H       1  LIG1        0.0278
     41 H           0.7456    5.7416    7.0397 H       1  LIG1        0.0278
     42 H           2.1415    5.8465    5.9362 H       1  LIG1        0.0278
     43 H           1.9955   -3.5963   -1.7960 H       1  LIG1        0.0640
     44 H           3.4724   -1.3370    1.5801 H       1  LIG1        0.0640
     45 H          -6.3303    0.6877   -1.7003 H       1  LIG1        0.0655
     46 H          -5.3145   -2.8082    0.5828 H       1  LIG1        0.0619
     47 H          -6.9134   -1.5711   -0.8596 H       1  LIG1        0.0619
     48 H           4.1103   -4.8828   -1.7273 H       1  LIG1        0.0830
     49 H           5.5173   -2.7298    1.4847 H       1  LIG1        0.0830
     50 H          -2.3669   -2.7048   -3.3507 H       1  LIG1        0.0660
     51 H          -1.3997   -3.4896   -2.0953 H       1  LIG1        0.0660
     52 H          -0.6302   -2.3774   -3.2926 H       1  LIG1        0.0660
     53 H          -4.0738    3.8867   -0.5673 H       1  LIG1        0.0660
     54 H          -2.5936    2.9481   -0.3577 H       1  LIG1        0.0660
     55 H          -4.0167    2.6686    0.7128 H       1  LIG1        0.0660
@<TRIPOS>BOND
     1     1     4    2
     2     1     5    2
     3     1     7    1
     4     1    14    1
     5     2    13    1
     6     2    19    1
     7     3    15    1
     8     3    33    1
     9     6    23    1
    10     6    34    1
    11     7    12    1
    12     8    12   ar
    13     8    16   ar
    14     9    15   ar
    15     9    16   ar
    16    10    14   ar
    17    10    22   ar
    18    11    31   ar
    19    11    32   ar
    20    12    13   ar
    21    13    15   ar
    22    14    17   ar
    23    16    18    1
    24    17    21   ar
    25    18    26   ar
    26    18    27   ar
    27    19    23   ar
    28    19    24   ar
    29    20    21   ar
    30    20    22   ar
    31    20    25    1
    32    23    28   ar
    33    24    29   ar
    34    26    31   ar
    35    27    32   ar
    36    28    30   ar
    37    29    30   ar
    38     7    35    1
    39    17    36    1
    40    21    37    1
    41    22    38    1
    42    24    39    1
    43    25    40    1
    44    25    41    1
    45    25    42    1
    46    26    43    1
    47    27    44    1
    48    28    45    1
    49    29    46    1
    50    30    47    1
    51    31    48    1
    52    32    49    1
    53    33    50    1
    54    33    51    1
    55    33    52    1
    56    34    53    1
    57    34    54    1
    58    34    55    1
@<TRIPOS>MOLECULE
9912992
 55 58 0 0 0
SMALL
GASTEIGER

@<TRIPOS>ATOM
      1 S          -0.4965    0.7786    3.2330 S.O2    1  LIG1        0.0908
      2 O          -2.2723    0.5450   -0.0191 O.3     1  LIG1       -0.4435
      3 O          -2.0881   -1.9322   -1.4189 O.3     1  LIG1       -0.4771
      4 O           0.7441    0.4197    3.8822 O.2     1  LIG1       -0.1484
      5 O          -1.3048    1.8691    3.7560 O.2     1  LIG1       -0.1484
      6 O          -4.8962    0.6539    0.0938 O.3     1  LIG1       -0.4914
      7 N          -0.1886    1.2173    1.6162 N.pl3   1  LIG1       -0.1950
      8 N           1.0850   -0.5454    0.7741 N.ar    1  LIG1       -0.2073
      9 N           0.1317   -2.1580   -0.6963 N.ar    1  LIG1       -0.1899
     10 N          -0.9037   -1.8511    3.0262 N.ar    1  LIG1       -0.2351
     11 N           4.8259   -3.8975    0.0401 N.ar    1  LIG1       -0.2632
     12 C          -0.0670    0.1289    0.7086 C.ar    1  LIG1        0.1882
     13 C          -1.1478   -0.2310   -0.0725 C.ar    1  LIG1        0.2307
     14 C          -1.5645   -0.6693    3.1432 C.ar    1  LIG1        0.1969
     15 C          -1.0015   -1.4311   -0.7309 C.ar    1  LIG1        0.2638
     16 C           1.1433   -1.6775    0.0551 C.ar    1  LIG1        0.1659
     17 C          -2.9427   -0.5298    3.1004 C.ar    1  LIG1       -0.0160
     18 C           2.4013   -2.4430    0.0667 C.ar    1  LIG1        0.0222
     19 C          -2.9327    0.8404   -1.1931 C.ar    1  LIG1        0.1702
     20 C          -3.0564   -2.9195    2.7568 C.ar    1  LIG1       -0.0322
     21 C          -3.6962   -1.6833    2.8969 C.ar    1  LIG1       -0.0541
     22 C          -1.6679   -2.9475    2.8511 C.ar    1  LIG1        0.0327
     23 C          -4.3351    0.9042   -1.1329 C.ar    1  LIG1        0.1621
     24 C          -2.2573    1.1401   -2.3834 C.ar    1  LIG1       -0.0157
     25 C          -3.8251   -4.1847    2.5411 C.3     1  LIG1       -0.0383
     26 C           3.5783   -1.9138    0.6153 C.ar    1  LIG1       -0.0329
     27 C           2.4792   -3.7316   -0.4840 C.ar    1  LIG1       -0.0329
     28 C          -5.0506    1.1966   -2.2970 C.ar    1  LIG1       -0.0163
     29 C          -2.9827    1.4354   -3.5356 C.ar    1  LIG1       -0.0581
     30 C          -4.3753    1.4538   -3.4943 C.ar    1  LIG1       -0.0581
     31 C           4.7442   -2.6627    0.5765 C.ar    1  LIG1        0.0282
     32 C           3.6891   -4.4071   -0.4729 C.ar    1  LIG1        0.0282
     33 C          -1.8460   -3.1794   -2.0574 C.3     1  LIG1        0.0805
     34 C          -6.2867    0.9160    0.2327 C.3     1  LIG1        0.0790
     35 H          -0.8771    1.9155    1.3389 H       1  LIG1        0.1754
     36 H          -3.4203    0.4409    3.1791 H       1  LIG1        0.0653
     37 H          -4.7790   -1.6106    2.8305 H       1  LIG1        0.0622
     38 H          -1.1145   -3.8803    2.7729 H       1  LIG1        0.0833
     39 H          -1.1723    1.1434   -2.4304 H       1  LIG1        0.0655
     40 H          -4.8628   -3.9779    2.2594 H       1  LIG1        0.0278
     41 H          -3.8283   -4.7852    3.4562 H       1  LIG1        0.0278
     42 H          -3.3767   -4.7697    1.7308 H       1  LIG1        0.0278
     43 H           3.5925   -0.9257    1.0674 H       1  LIG1        0.0640
     44 H           1.6068   -4.2106   -0.9182 H       1  LIG1        0.0640
     45 H          -6.1349    1.2272   -2.3096 H       1  LIG1        0.0655
     46 H          -2.4626    1.6497   -4.4658 H       1  LIG1        0.0619
     47 H          -4.9400    1.6765   -4.3970 H       1  LIG1        0.0619
     48 H           5.6705   -2.2728    0.9880 H       1  LIG1        0.0830
     49 H           3.7757   -5.4056   -0.8911 H       1  LIG1        0.0830
     50 H          -2.7612   -3.4669   -2.5834 H       1  LIG1        0.0660
     51 H          -1.6232   -3.9617   -1.3238 H       1  LIG1        0.0660
     52 H          -1.0462   -3.0966   -2.8010 H       1  LIG1        0.0660
     53 H          -6.5472    0.7816    1.2868 H       1  LIG1        0.0660
     54 H          -6.8781    0.2030   -0.3505 H       1  LIG1        0.0660
     55 H          -6.5281    1.9489   -0.0398 H       1  LIG1        0.0660
@<TRIPOS>BOND
     1     1     4    2
     2     1     5    2
     3     1     7    1
     4     1    14    1
     5     2    13    1
     6     2    19    1
     7     3    15    1
     8     3    33    1
     9     6    23    1
    10     6    34    1
    11     7    12    1
    12     8    12   ar
    13     8    16   ar
    14     9    15   ar
    15     9    16   ar
    16    10    14   ar
    17    10    22   ar
    18    11    31   ar
    19    11    32   ar
    20    12    13   ar
    21    13    15   ar
    22    14    17   ar
    23    16    18    1
    24    17    21   ar
    25    18    26   ar
    26    18    27   ar
    27    19    23   ar
    28    19    24   ar
    29    20    21   ar
    30    20    22   ar
    31    20    25    1
    32    23    28   ar
    33    24    29   ar
    34    26    31   ar
    35    27    32   ar
    36    28    30   ar
    37    29    30   ar
    38     7    35    1
    39    17    36    1
    40    21    37    1
    41    22    38    1
    42    24    39    1
    43    25    40    1
    44    25    41    1
    45    25    42    1
    46    26    43    1
    47    27    44    1
    48    28    45    1
    49    29    46    1
    50    30    47    1
    51    31    48    1
    52    32    49    1
    53    33    50    1
    54    33    51    1
    55    33    52    1
    56    34    53    1
    57    34    54    1
    58    34    55    1
@<TRIPOS>MOLECULE
9912992
 55 58 0 0 0
SMALL
GASTEIGER

@<TRIPOS>ATOM
      1 S           0.4481    2.4136    1.5422 S.O2    1  LIG1        0.0908
      2 O          -2.3804    0.4178    0.1488 O.3     1  LIG1       -0.4435
      3 O          -1.8165   -1.4603   -1.9499 O.3     1  LIG1       -0.4771
      4 O          -0.2310    3.4185    2.3424 O.2     1  LIG1       -0.1484
      5 O           1.8798    2.2409    1.6629 O.2     1  LIG1       -0.1484
      6 O          -4.2148    1.8092   -1.1358 O.3     1  LIG1       -0.4914
      7 N          -0.3559    0.9623    1.9098 N.pl3   1  LIG1       -0.1950
      8 N           0.9649   -0.7006    0.9589 N.ar    1  LIG1       -0.2073
      9 N           0.2627   -1.8961   -0.9757 N.ar    1  LIG1       -0.1899
     10 N           0.7381    2.0144   -1.0803 N.ar    1  LIG1       -0.2351
     11 N           4.8783   -3.7621   -0.0634 N.ar    1  LIG1       -0.2632
     12 C          -0.2162   -0.0717    0.9455 C.ar    1  LIG1        0.1882
     13 C          -1.2331   -0.3198    0.0446 C.ar    1  LIG1        0.2307
     14 C           0.0385    2.7510   -0.1772 C.ar    1  LIG1        0.1969
     15 C          -0.9158   -1.2431   -0.9275 C.ar    1  LIG1        0.2638
     16 C           1.1643   -1.5964   -0.0203 C.ar    1  LIG1        0.1659
     17 C          -0.9743    3.6406   -0.4995 C.ar    1  LIG1       -0.0160
     18 C           2.4437   -2.3248   -0.0398 C.ar    1  LIG1        0.0222
     19 C          -3.5957   -0.1974   -0.0670 C.ar    1  LIG1        0.1702
     20 C          -0.6282    3.0164   -2.8078 C.ar    1  LIG1       -0.0322
     21 C          -1.3069    3.7708   -1.8450 C.ar    1  LIG1       -0.0541
     22 C           0.3942    2.1771   -2.3743 C.ar    1  LIG1        0.0327
     23 C          -4.5746    0.5428   -0.7511 C.ar    1  LIG1        0.1621
     24 C          -3.8881   -1.4735    0.4310 C.ar    1  LIG1       -0.0157
     25 C          -0.9521    3.1336   -4.2636 C.3     1  LIG1       -0.0383
     26 C           2.8496   -3.0625   -1.1624 C.ar    1  LIG1       -0.0329
     27 C           3.3068   -2.3208    1.0655 C.ar    1  LIG1       -0.0329
     28 C          -5.8166   -0.0464   -1.0021 C.ar    1  LIG1       -0.0163
     29 C          -5.1324   -2.0473    0.1787 C.ar    1  LIG1       -0.0581
     30 C          -6.0896   -1.3396   -0.5452 C.ar    1  LIG1       -0.0581
     31 C           4.0530   -3.7491   -1.1283 C.ar    1  LIG1        0.0282
     32 C           4.4883   -3.0432    1.0091 C.ar    1  LIG1        0.0282
     33 C          -1.6445   -2.7209   -2.5872 C.3     1  LIG1        0.0805
     34 C          -5.2492    2.6544   -1.6218 C.3     1  LIG1        0.0790
     35 H          -1.3209    1.1763    2.1575 H       1  LIG1        0.1754
     36 H          -1.5097    4.1961    0.2622 H       1  LIG1        0.0653
     37 H          -2.1071    4.4466   -2.1368 H       1  LIG1        0.0622
     38 H           0.9750    1.5849   -3.0778 H       1  LIG1        0.0833
     39 H          -3.1572   -2.0331    1.0073 H       1  LIG1        0.0655
     40 H          -1.9686    3.5126   -4.4124 H       1  LIG1        0.0278
     41 H          -0.8969    2.1540   -4.7505 H       1  LIG1        0.0278
     42 H          -0.2491    3.8148   -4.7523 H       1  LIG1        0.0278
     43 H           2.2393   -3.0999   -2.0596 H       1  LIG1        0.0640
     44 H           3.0629   -1.7633    1.9659 H       1  LIG1        0.0640
     45 H          -6.5932    0.4706   -1.5558 H       1  LIG1        0.0655
     46 H          -5.3555   -3.0465    0.5446 H       1  LIG1        0.0619
     47 H          -7.0573   -1.7921   -0.7495 H       1  LIG1        0.0619
     48 H           4.3927   -4.3237   -1.9852 H       1  LIG1        0.0830
     49 H           5.1705   -3.0623    1.8543 H       1  LIG1        0.0830
     50 H          -2.4905   -2.8686   -3.2653 H       1  LIG1        0.0660
     51 H          -1.6559   -3.5398   -1.8589 H       1  LIG1        0.0660
     52 H          -0.7276   -2.7402   -3.1851 H       1  LIG1        0.0660
     53 H          -4.8266    3.6545   -1.7588 H       1  LIG1        0.0660
     54 H          -6.0696    2.7380   -0.9009 H       1  LIG1        0.0660
     55 H          -5.6104    2.3089   -2.5956 H       1  LIG1        0.0660
@<TRIPOS>BOND
     1     1     4    2
     2     1     5    2
     3     1     7    1
     4     1    14    1
     5     2    13    1
     6     2    19    1
     7     3    15    1
     8     3    33    1
     9     6    23    1
    10     6    34    1
    11     7    12    1
    12     8    12   ar
    13     8    16   ar
    14     9    15   ar
    15     9    16   ar
    16    10    14   ar
    17    10    22   ar
    18    11    31   ar
    19    11    32   ar
    20    12    13   ar
    21    13    15   ar
    22    14    17   ar
    23    16    18    1
    24    17    21   ar
    25    18    26   ar
    26    18    27   ar
    27    19    23   ar
    28    19    24   ar
    29    20    21   ar
    30    20    22   ar
    31    20    25    1
    32    23    28   ar
    33    24    29   ar
    34    26    31   ar
    35    27    32   ar
    36    28    30   ar
    37    29    30   ar
    38     7    35    1
    39    17    36    1
    40    21    37    1
    41    22    38    1
    42    24    39    1
    43    25    40    1
    44    25    41    1
    45    25    42    1
    46    26    43    1
    47    27    44    1
    48    28    45    1
    49    29    46    1
    50    30    47    1
    51    31    48    1
    52    32    49    1
    53    33    50    1
    54    33    51    1
    55    33    52    1
    56    34    53    1
    57    34    54    1
    58    34    55    1
@<TRIPOS>MOLECULE
9912992
 55 58 0 0 0
SMALL
GASTEIGER

@<TRIPOS>ATOM
      1 S          -0.7277    0.6497    3.3726 S.O2    1  LIG1        0.0908
      2 O          -2.2529    0.5827    0.1635 O.3     1  LIG1       -0.4435
      3 O          -1.7470   -1.3371   -1.9316 O.3     1  LIG1       -0.4771
      4 O          -1.4997    1.7800    3.8466 O.2     1  LIG1       -0.1484
      5 O          -1.3354   -0.6634    3.2554 O.2     1  LIG1       -0.1484
      6 O          -4.1092    1.9453   -1.1549 O.3     1  LIG1       -0.4914
      7 N          -0.1294    1.1264    1.8630 N.pl3   1  LIG1       -0.1950
      8 N           1.1053   -0.5958    0.9112 N.ar    1  LIG1       -0.2073
      9 N           0.3179   -1.8059   -0.9803 N.ar    1  LIG1       -0.1899
     10 N           0.9574    1.4665    5.2858 N.ar    1  LIG1       -0.2351
     11 N           4.8052   -3.9377   -0.1709 N.ar    1  LIG1       -0.2632
     12 C          -0.0475    0.0995    0.8841 C.ar    1  LIG1        0.1882
     13 C          -1.1035   -0.1494    0.0272 C.ar    1  LIG1        0.2307
     14 C           0.7535    0.4859    4.3686 C.ar    1  LIG1        0.1969
     15 C          -0.8367   -1.1143   -0.9215 C.ar    1  LIG1        0.2638
     16 C           1.2418   -1.5328   -0.0443 C.ar    1  LIG1        0.1659
     17 C           1.5688   -0.6223    4.2108 C.ar    1  LIG1       -0.0160
     18 C           2.4767   -2.3355   -0.0842 C.ar    1  LIG1        0.0222
     19 C          -3.4633   -0.0456   -0.0672 C.ar    1  LIG1        0.1702
     20 C           2.9513    0.2680    5.9734 C.ar    1  LIG1       -0.0322
     21 C           2.6958   -0.7214    5.0208 C.ar    1  LIG1       -0.0541
     22 C           2.0463    1.3245    6.0728 C.ar    1  LIG1        0.0327
     23 C          -4.4344    0.6630   -0.7923 C.ar    1  LIG1        0.1621
     24 C          -3.7424   -1.3300    0.4211 C.ar    1  LIG1       -0.0157
     25 C           4.1328    0.1845    6.8889 C.3     1  LIG1       -0.0383
     26 C           2.8806   -2.9842   -1.2624 C.ar    1  LIG1       -0.0329
     27 C           3.2880   -2.5086    1.0445 C.ar    1  LIG1       -0.0329
     28 C          -5.6356    0.0251   -1.1194 C.ar    1  LIG1       -0.0163
     29 C          -4.9420   -1.9556    0.0848 C.ar    1  LIG1       -0.0581
     30 C          -5.8791   -1.2856   -0.6964 C.ar    1  LIG1       -0.0581
     31 C           4.0321   -3.7561   -1.2585 C.ar    1  LIG1        0.0282
     32 C           4.4162   -3.3102    0.9561 C.ar    1  LIG1        0.0282
     33 C          -1.7998   -2.7082   -2.3145 C.3     1  LIG1        0.0805
     34 C          -5.1789    2.7727   -1.5952 C.3     1  LIG1        0.0790
     35 H          -0.6537    1.9507    1.5722 H       1  LIG1        0.1754
     36 H           1.3323   -1.3885    3.4820 H       1  LIG1        0.0653
     37 H           3.3641   -1.5718    4.9119 H       1  LIG1        0.0622
     38 H           2.1771    2.1064    6.8167 H       1  LIG1        0.0833
     39 H          -3.0251   -1.8598    1.0419 H       1  LIG1        0.0655
     40 H           4.8256   -0.6033    6.5745 H       1  LIG1        0.0278
     41 H           3.8051   -0.0372    7.9094 H       1  LIG1        0.0278
     42 H           4.6862    1.1293    6.8853 H       1  LIG1        0.0278
     43 H           2.3068   -2.8889   -2.1798 H       1  LIG1        0.0640
     44 H           3.0449   -2.0380    1.9884 H       1  LIG1        0.0640
     45 H          -6.3974    0.5161   -1.7158 H       1  LIG1        0.0655
     46 H          -5.1419   -2.9686    0.4277 H       1  LIG1        0.0619
     47 H          -6.8093   -1.7780   -0.9708 H       1  LIG1        0.0619
     48 H           4.3678   -4.2631   -2.1588 H       1  LIG1        0.0830
     49 H           5.0538   -3.4759    1.8205 H       1  LIG1        0.0830
     50 H          -2.6835   -2.8447   -2.9447 H       1  LIG1        0.0660
     51 H          -1.9092   -3.3644   -1.4427 H       1  LIG1        0.0660
     52 H          -0.9193   -2.9881   -2.9018 H       1  LIG1        0.0660
     53 H          -4.8052    3.7993   -1.6570 H       1  LIG1        0.0660
     54 H          -6.0142    2.7675   -0.8860 H       1  LIG1        0.0660
     55 H          -5.5092    2.4762   -2.5958 H       1  LIG1        0.0660
@<TRIPOS>BOND
     1     1     4    2
     2     1     5    2
     3     1     7    1
     4     1    14    1
     5     2    13    1
     6     2    19    1
     7     3    15    1
     8     3    33    1
     9     6    23    1
    10     6    34    1
    11     7    12    1
    12     8    12   ar
    13     8    16   ar
    14     9    15   ar
    15     9    16   ar
    16    10    14   ar
    17    10    22   ar
    18    11    31   ar
    19    11    32   ar
    20    12    13   ar
    21    13    15   ar
    22    14    17   ar
    23    16    18    1
    24    17    21   ar
    25    18    26   ar
    26    18    27   ar
    27    19    23   ar
    28    19    24   ar
    29    20    21   ar
    30    20    22   ar
    31    20    25    1
    32    23    28   ar
    33    24    29   ar
    34    26    31   ar
    35    27    32   ar
    36    28    30   ar
    37    29    30   ar
    38     7    35    1
    39    17    36    1
    40    21    37    1
    41    22    38    1
    42    24    39    1
    43    25    40    1
    44    25    41    1
    45    25    42    1
    46    26    43    1
    47    27    44    1
    48    28    45    1
    49    29    46    1
    50    30    47    1
    51    31    48    1
    52    32    49    1
    53    33    50    1
    54    33    51    1
    55    33    52    1
    56    34    53    1
    57    34    54    1
    58    34    55    1
@<TRIPOS>MOLECULE
9912992
 55 58 0 0 0
SMALL
GASTEIGER

@<TRIPOS>ATOM
      1 S          -0.6307    0.9098    3.1775 S.O2    1  LIG1        0.0908
      2 O          -2.3621    0.4720    0.1369 O.3     1  LIG1       -0.4435
      3 O          -2.2433   -2.0174   -1.2070 O.3     1  LIG1       -0.4771
      4 O           0.0953    1.8301    4.0361 O.2     1  LIG1       -0.1484
      5 O          -2.0764    0.9368    3.1369 O.2     1  LIG1       -0.1484
      6 O          -5.0104    0.5138    0.1018 O.3     1  LIG1       -0.4914
      7 N          -0.0160    1.1899    1.6182 N.pl3   1  LIG1       -0.1950
      8 N           1.0774   -0.5699    0.7052 N.ar    1  LIG1       -0.2073
      9 N           0.0201   -2.2288   -0.6266 N.ar    1  LIG1       -0.1899
     10 N          -0.9670   -1.7378    3.3162 N.ar    1  LIG1       -0.2351
     11 N           4.7502   -3.9660   -0.0590 N.ar    1  LIG1       -0.2632
     12 C          -0.0953    0.0836    0.7393 C.ar    1  LIG1        0.1882
     13 C          -1.2407   -0.3028    0.0814 C.ar    1  LIG1        0.2307
     14 C          -0.0777   -0.7511    3.6007 C.ar    1  LIG1        0.1969
     15 C          -1.1238   -1.5096   -0.5781 C.ar    1  LIG1        0.2638
     16 C           1.0842   -1.7226    0.0176 C.ar    1  LIG1        0.1659
     17 C           1.1863   -0.9538    4.1329 C.ar    1  LIG1       -0.0160
     18 C           2.3402   -2.4907   -0.0114 C.ar    1  LIG1        0.0222
     19 C          -2.9772    0.8061   -1.0558 C.ar    1  LIG1        0.1702
     20 C           0.6916   -3.3185    4.0991 C.ar    1  LIG1       -0.0322
     21 C           1.5734   -2.2686    4.3782 C.ar    1  LIG1       -0.0541
     22 C          -0.5647   -2.9957    3.5923 C.ar    1  LIG1        0.0327
     23 C          -4.3813    0.8410   -1.0706 C.ar    1  LIG1        0.1621
     24 C          -2.2502    1.1612   -2.2011 C.ar    1  LIG1       -0.0157
     25 C           1.0554   -4.7395    4.3967 C.3     1  LIG1       -0.0383
     26 C           3.5482   -1.9386    0.4432 C.ar    1  LIG1       -0.0329
     27 C           2.3835   -3.8076   -0.4916 C.ar    1  LIG1       -0.0329
     28 C          -5.0424    1.1634   -2.2599 C.ar    1  LIG1       -0.0163
     29 C          -2.9212    1.4858   -3.3795 C.ar    1  LIG1       -0.0581
     30 C          -4.3138    1.4784   -3.4107 C.ar    1  LIG1       -0.0581
     31 C           4.7056   -2.6995    0.3978 C.ar    1  LIG1        0.0282
     32 C           3.5883   -4.4922   -0.4948 C.ar    1  LIG1        0.0282
     33 C          -2.0006   -3.1932   -1.9677 C.3     1  LIG1        0.0805
     34 C          -6.3721    0.8981    0.2297 C.3     1  LIG1        0.0790
     35 H           0.9305    1.5524    1.6949 H       1  LIG1        0.1754
     36 H           1.8566   -0.1262    4.3354 H       1  LIG1        0.0653
     37 H           2.5612   -2.4723    4.7860 H       1  LIG1        0.0622
     38 H          -1.3055   -3.7655    3.3866 H       1  LIG1        0.0833
     39 H          -1.1654    1.1886   -2.1897 H       1  LIG1        0.0655
     40 H           2.1397   -4.8851    4.3500 H       1  LIG1        0.0278
     41 H           0.6049   -5.4179    3.6646 H       1  LIG1        0.0278
     42 H           0.7063   -5.0149    5.3969 H       1  LIG1        0.0278
     43 H           3.5957   -0.9233    0.8243 H       1  LIG1        0.0640
     44 H           1.4883   -4.3019   -0.8575 H       1  LIG1        0.0640
     45 H          -6.1254    1.1654   -2.3242 H       1  LIG1        0.0655
     46 H          -2.3583    1.7438   -4.2729 H       1  LIG1        0.0619
     47 H          -4.8371    1.7228   -4.3318 H       1  LIG1        0.0619
     48 H           5.6552   -2.2948    0.7365 H       1  LIG1        0.0830
     49 H           3.6500   -5.5130   -0.8601 H       1  LIG1        0.0830
     50 H          -2.9370   -3.4708   -2.4610 H       1  LIG1        0.0660
     51 H          -1.7025   -4.0265   -1.3227 H       1  LIG1        0.0660
     52 H          -1.2538   -3.0143   -2.7493 H       1  LIG1        0.0660
     53 H          -6.6639    0.7546    1.2745 H       1  LIG1        0.0660
     54 H          -7.0138    0.2604   -0.3865 H       1  LIG1        0.0660
     55 H          -6.5179    1.9562   -0.0134 H       1  LIG1        0.0660
@<TRIPOS>BOND
     1     1     4    2
     2     1     5    2
     3     1     7    1
     4     1    14    1
     5     2    13    1
     6     2    19    1
     7     3    15    1
     8     3    33    1
     9     6    23    1
    10     6    34    1
    11     7    12    1
    12     8    12   ar
    13     8    16   ar
    14     9    15   ar
    15     9    16   ar
    16    10    14   ar
    17    10    22   ar
    18    11    31   ar
    19    11    32   ar
    20    12    13   ar
    21    13    15   ar
    22    14    17   ar
    23    16    18    1
    24    17    21   ar
    25    18    26   ar
    26    18    27   ar
    27    19    23   ar
    28    19    24   ar
    29    20    21   ar
    30    20    22   ar
    31    20    25    1
    32    23    28   ar
    33    24    29   ar
    34    26    31   ar
    35    27    32   ar
    36    28    30   ar
    37    29    30   ar
    38     7    35    1
    39    17    36    1
    40    21    37    1
    41    22    38    1
    42    24    39    1
    43    25    40    1
    44    25    41    1
    45    25    42    1
    46    26    43    1
    47    27    44    1
    48    28    45    1
    49    29    46    1
    50    30    47    1
    51    31    48    1
    52    32    49    1
    53    33    50    1
    54    33    51    1
    55    33    52    1
    56    34    53    1
    57    34    54    1
    58    34    55    1
@<TRIPOS>MOLECULE
9912992
 55 58 0 0 0
SMALL
GASTEIGER

@<TRIPOS>ATOM
      1 S          -0.7083    0.8224    3.1884 S.O2    1  LIG1        0.0908
      2 O          -2.3112    0.5085    0.1090 O.3     1  LIG1       -0.4435
      3 O          -2.1579   -1.9349   -1.3211 O.3     1  LIG1       -0.4771
      4 O          -0.0636    1.7451    4.1078 O.2     1  LIG1       -0.1484
      5 O          -2.1499    0.8049    3.0721 O.2     1  LIG1       -0.1484
      6 O          -4.9620    0.4975    0.0945 O.3     1  LIG1       -0.4914
      7 N          -0.0030    1.1612    1.6786 N.pl3   1  LIG1       -0.1950
      8 N           1.1278   -0.5335    0.6885 N.ar    1  LIG1       -0.2073
      9 N           0.0991   -2.1490   -0.7209 N.ar    1  LIG1       -0.1899
     10 N          -0.7271   -1.8338    2.9072 N.ar    1  LIG1       -0.2351
     11 N           4.7929   -3.9441   -0.0612 N.ar    1  LIG1       -0.2632
     12 C          -0.0528    0.1064    0.7346 C.ar    1  LIG1        0.1882
     13 C          -1.1837   -0.2560    0.0354 C.ar    1  LIG1        0.2307
     14 C          -0.1481   -0.8332    3.6245 C.ar    1  LIG1        0.1969
     15 C          -1.0498   -1.4389   -0.6629 C.ar    1  LIG1        0.2638
     16 C           1.1501   -1.6605   -0.0407 C.ar    1  LIG1        0.1659
     17 C           0.8279   -1.0189    4.5903 C.ar    1  LIG1       -0.0160
     18 C           2.4004   -2.4388   -0.0559 C.ar    1  LIG1        0.0222
     19 C          -2.9429    0.8515   -1.0720 C.ar    1  LIG1        0.1702
     20 C           0.6957   -3.3828    4.1043 C.ar    1  LIG1       -0.0322
     21 C           1.2581   -2.3229    4.8240 C.ar    1  LIG1       -0.0541
     22 C          -0.2874   -3.0824    3.1656 C.ar    1  LIG1        0.0327
     23 C          -4.3476    0.8603   -1.0754 C.ar    1  LIG1        0.1621
     24 C          -2.2318    1.2422   -2.2154 C.ar    1  LIG1       -0.0157
     25 C           1.1610   -4.7930    4.2902 C.3     1  LIG1       -0.0383
     26 C           3.5985   -1.9141    0.4533 C.ar    1  LIG1       -0.0329
     27 C           2.4452   -3.7435   -0.5699 C.ar    1  LIG1       -0.0329
     28 C          -5.0242    1.1924   -2.2532 C.ar    1  LIG1       -0.0163
     29 C          -2.9180    1.5765   -3.3821 C.ar    1  LIG1       -0.0581
     30 C          -4.3105    1.5432   -3.4030 C.ar    1  LIG1       -0.0581
     31 C           4.7477   -2.6888    0.4270 C.ar    1  LIG1        0.0282
     32 C           3.6410   -4.4434   -0.5502 C.ar    1  LIG1        0.0282
     33 C          -1.9293   -3.1526   -2.0163 C.3     1  LIG1        0.0805
     34 C          -6.3238    0.8725    0.2465 C.3     1  LIG1        0.0790
     35 H           0.9458    1.4968    1.8208 H       1  LIG1        0.1754
     36 H           1.2543   -0.1851    5.1372 H       1  LIG1        0.0653
     37 H           2.0328   -2.5082    5.5645 H       1  LIG1        0.0622
     38 H          -0.7561   -3.8625    2.5702 H       1  LIG1        0.0833
     39 H          -1.1474    1.2885   -2.2106 H       1  LIG1        0.0655
     40 H           1.7470   -4.9016    5.2085 H       1  LIG1        0.0278
     41 H           1.7864   -5.0956    3.4442 H       1  LIG1        0.0278
     42 H           0.3055   -5.4725    4.3636 H       1  LIG1        0.0278
     43 H           3.6435   -0.9102    0.8650 H       1  LIG1        0.0640
     44 H           1.5574   -4.2168   -0.9777 H       1  LIG1        0.0640
     45 H          -6.1072    1.1739   -2.3091 H       1  LIG1        0.0655
     46 H          -2.3671    1.8611   -4.2745 H       1  LIG1        0.0619
     47 H          -4.8456    1.7945   -4.3155 H       1  LIG1        0.0619
     48 H           5.6890   -2.3052    0.8102 H       1  LIG1        0.0830
     49 H           3.7025   -5.4558   -0.9391 H       1  LIG1        0.0830
     50 H          -2.8664   -3.4404   -2.5020 H       1  LIG1        0.0660
     51 H          -1.6507   -3.9563   -1.3264 H       1  LIG1        0.0660
     52 H          -1.1737   -3.0264   -2.7990 H       1  LIG1        0.0660
     53 H          -6.6023    0.7066    1.2916 H       1  LIG1        0.0660
     54 H          -6.9699    0.2441   -0.3745 H       1  LIG1        0.0660
     55 H          -6.4779    1.9346    0.0263 H       1  LIG1        0.0660
@<TRIPOS>BOND
     1     1     4    2
     2     1     5    2
     3     1     7    1
     4     1    14    1
     5     2    13    1
     6     2    19    1
     7     3    15    1
     8     3    33    1
     9     6    23    1
    10     6    34    1
    11     7    12    1
    12     8    12   ar
    13     8    16   ar
    14     9    15   ar
    15     9    16   ar
    16    10    14   ar
    17    10    22   ar
    18    11    31   ar
    19    11    32   ar
    20    12    13   ar
    21    13    15   ar
    22    14    17   ar
    23    16    18    1
    24    17    21   ar
    25    18    26   ar
    26    18    27   ar
    27    19    23   ar
    28    19    24   ar
    29    20    21   ar
    30    20    22   ar
    31    20    25    1
    32    23    28   ar
    33    24    29   ar
    34    26    31   ar
    35    27    32   ar
    36    28    30   ar
    37    29    30   ar
    38     7    35    1
    39    17    36    1
    40    21    37    1
    41    22    38    1
    42    24    39    1
    43    25    40    1
    44    25    41    1
    45    25    42    1
    46    26    43    1
    47    27    44    1
    48    28    45    1
    49    29    46    1
    50    30    47    1
    51    31    48    1
    52    32    49    1
    53    33    50    1
    54    33    51    1
    55    33    52    1
    56    34    53    1
    57    34    54    1
    58    34    55    1
@<TRIPOS>MOLECULE
9912992
 55 58 0 0 0
SMALL
GASTEIGER

@<TRIPOS>ATOM
      1 S          -0.8025    0.6607    3.2986 S.O2    1  LIG1        0.0908
      2 O          -2.2748    0.6142    0.1095 O.3     1  LIG1       -0.4435
      3 O          -1.8393   -1.3881   -1.8966 O.3     1  LIG1       -0.4771
      4 O          -0.2413    1.5559    4.2941 O.2     1  LIG1       -0.1484
      5 O          -2.2343    0.5665    3.1244 O.2     1  LIG1       -0.1484
      6 O          -4.0731    1.8231   -1.4445 O.3     1  LIG1       -0.4914
      7 N          -0.0667    1.1072    1.8419 N.pl3   1  LIG1       -0.1950
      8 N           1.1161   -0.5157    0.7932 N.ar    1  LIG1       -0.2073
      9 N           0.2659   -1.8276   -0.9956 N.ar    1  LIG1       -0.1899
     10 N          -0.7762   -1.9903    2.9626 N.ar    1  LIG1       -0.2351
     11 N           4.8063   -3.8661   -0.1053 N.ar    1  LIG1       -0.2632
     12 C          -0.0626    0.1295    0.8178 C.ar    1  LIG1        0.1882
     13 C          -1.1430   -0.1446    0.0054 C.ar    1  LIG1        0.2307
     14 C          -0.1655   -0.9869    3.6504 C.ar    1  LIG1        0.1969
     15 C          -0.8930   -1.1364   -0.9243 C.ar    1  LIG1        0.2638
     16 C           1.2209   -1.5016   -0.1105 C.ar    1  LIG1        0.1659
     17 C           0.8699   -1.1610    4.5547 C.ar    1  LIG1       -0.0160
     18 C           2.4558   -2.3007   -0.1139 C.ar    1  LIG1        0.0222
     19 C          -3.4966   -0.0046   -0.0605 C.ar    1  LIG1        0.1702
     20 C           0.7362   -3.5230    4.0706 C.ar    1  LIG1       -0.0322
     21 C           1.3249   -2.4594    4.7641 C.ar    1  LIG1       -0.0541
     22 C          -0.3128   -3.2345    3.2005 C.ar    1  LIG1        0.0327
     23 C          -4.4460    0.6338   -0.8720 C.ar    1  LIG1        0.1621
     24 C          -3.8181   -1.1983    0.5985 C.ar    1  LIG1       -0.0157
     25 C           1.1696   -4.9376    4.2965 C.3     1  LIG1       -0.0383
     26 C           2.8370   -3.0532   -1.2342 C.ar    1  LIG1       -0.0329
     27 C           3.2939   -2.3560    1.0093 C.ar    1  LIG1       -0.0329
     28 C          -5.6803    0.0152   -1.0933 C.ar    1  LIG1       -0.0163
     29 C          -5.0565   -1.8010    0.3805 C.ar    1  LIG1       -0.0581
     30 C          -5.9802   -1.2020   -0.4739 C.ar    1  LIG1       -0.0581
     31 C           4.0011   -3.8035   -1.1847 C.ar    1  LIG1        0.0282
     32 C           4.4355   -3.1402    0.9678 C.ar    1  LIG1        0.0282
     33 C          -1.7561   -2.7034   -2.4323 C.3     1  LIG1        0.0805
     34 C          -5.1337    2.7297   -1.7202 C.3     1  LIG1        0.0790
     35 H           0.8645    1.4724    2.0219 H       1  LIG1        0.1754
     36 H           1.3135   -0.3220    5.0813 H       1  LIG1        0.0653
     37 H           2.1332   -2.6387    5.4691 H       1  LIG1        0.0622
     38 H          -0.8239   -4.0250    2.6554 H       1  LIG1        0.0833
     39 H          -3.1130   -1.6587    1.2851 H       1  LIG1        0.0655
     40 H           2.1734   -4.9795    4.7315 H       1  LIG1        0.0278
     41 H           1.2009   -5.4858    3.3492 H       1  LIG1        0.0278
     42 H           0.4739   -5.4388    4.9767 H       1  LIG1        0.0278
     43 H           2.2380   -3.0532   -2.1405 H       1  LIG1        0.0640
     44 H           3.0574   -1.8047    1.9140 H       1  LIG1        0.0640
     45 H          -6.4204    0.4525   -1.7551 H       1  LIG1        0.0655
     46 H          -5.2995   -2.7351    0.8792 H       1  LIG1        0.0619
     47 H          -6.9410   -1.6777   -0.6527 H       1  LIG1        0.0619
     48 H           4.3239   -4.3912   -2.0396 H       1  LIG1        0.0830
     49 H           5.0997   -3.2075    1.8249 H       1  LIG1        0.0830
     50 H          -2.6391   -2.8646   -3.0581 H       1  LIG1        0.0660
     51 H          -1.7670   -3.4602   -1.6394 H       1  LIG1        0.0660
     52 H          -0.8713   -2.8155   -3.0670 H       1  LIG1        0.0660
     53 H          -4.6948    3.7191   -1.8827 H       1  LIG1        0.0660
     54 H          -5.8319    2.8107   -0.8790 H       1  LIG1        0.0660
     55 H          -5.6572    2.4422   -2.6377 H       1  LIG1        0.0660
@<TRIPOS>BOND
     1     1     4    2
     2     1     5    2
     3     1     7    1
     4     1    14    1
     5     2    13    1
     6     2    19    1
     7     3    15    1
     8     3    33    1
     9     6    23    1
    10     6    34    1
    11     7    12    1
    12     8    12   ar
    13     8    16   ar
    14     9    15   ar
    15     9    16   ar
    16    10    14   ar
    17    10    22   ar
    18    11    31   ar
    19    11    32   ar
    20    12    13   ar
    21    13    15   ar
    22    14    17   ar
    23    16    18    1
    24    17    21   ar
    25    18    26   ar
    26    18    27   ar
    27    19    23   ar
    28    19    24   ar
    29    20    21   ar
    30    20    22   ar
    31    20    25    1
    32    23    28   ar
    33    24    29   ar
    34    26    31   ar
    35    27    32   ar
    36    28    30   ar
    37    29    30   ar
    38     7    35    1
    39    17    36    1
    40    21    37    1
    41    22    38    1
    42    24    39    1
    43    25    40    1
    44    25    41    1
    45    25    42    1
    46    26    43    1
    47    27    44    1
    48    28    45    1
    49    29    46    1
    50    30    47    1
    51    31    48    1
    52    32    49    1
    53    33    50    1
    54    33    51    1
    55    33    52    1
    56    34    53    1
    57    34    54    1
    58    34    55    1
