@<TRIPOS>MOLECULE
9843631
 45 48 0 0 0
SMALL
GASTEIGER

@<TRIPOS>ATOM
      1 S          -2.4044   -0.9999   -0.9447 S.O2    1  LIG1        0.0752
      2 O          -3.8192   -3.6195    1.1941 O.2     1  LIG1       -0.3377
      3 O          -3.4725   -1.5497   -1.7553 O.2     1  LIG1       -0.1499
      4 O          -1.1007   -0.7637   -1.5211 O.2     1  LIG1       -0.1499
      5 O           4.2708    0.7669    0.0428 O.2     1  LIG1       -0.4436
      6 N          -2.2256   -1.9346    0.4723 N.pl3   1  LIG1       -0.1831
      7 N          -4.1643   -4.9251    0.9194 N.ar    1  LIG1       -0.0810
      8 N           4.2682    2.9951   -0.3286 N.ar    1  LIG1       -0.2175
      9 C          -3.0333    0.5052   -0.1985 C.ar    1  LIG1        0.1162
     10 C          -2.2104    1.5233    0.3246 C.ar    1  LIG1        0.0087
     11 C          -0.7384    1.5861    0.2425 C.ar    1  LIG1       -0.0160
     12 C          -4.4389    0.5944   -0.1068 C.ar    1  LIG1       -0.0345
     13 C          -2.7933   -3.2340    0.3892 C.ar    1  LIG1        0.2399
     14 C          -2.8638    2.6005    0.9689 C.ar    1  LIG1       -0.0521
     15 C          -2.3914   -4.3004   -0.3843 C.ar    1  LIG1        0.0350
     16 C           0.0987    0.6366    0.8451 C.ar    1  LIG1       -0.0533
     17 C          -0.1262    2.6667   -0.4180 C.ar    1  LIG1       -0.0533
     18 C          -5.0448    1.6775    0.5229 C.ar    1  LIG1       -0.0599
     19 C          -4.2555    2.6780    1.0699 C.ar    1  LIG1       -0.0611
     20 C           2.0933    1.8016    0.0632 C.ar    1  LIG1        0.0369
     21 C          -3.3094   -5.3306   -0.0262 C.ar    1  LIG1        0.0854
     22 C           1.4942    0.7293    0.7361 C.ar    1  LIG1       -0.0489
     23 C           1.2658    2.7810   -0.4942 C.ar    1  LIG1       -0.0489
     24 C          -1.2612   -4.4010   -1.3350 C.3     1  LIG1       -0.0330
     25 C          -3.3790   -6.7199   -0.5372 C.3     1  LIG1       -0.0188
     26 C           3.5407    1.9234   -0.0691 C.ar    1  LIG1        0.2271
     27 C           5.5559    1.1626   -0.1753 C.ar    1  LIG1        0.1125
     28 C           5.5527    2.5174   -0.3850 C.ar    1  LIG1        0.0663
     29 H          -2.6213   -1.4426    1.2742 H       1  LIG1        0.1768
     30 H          -5.0762   -0.1871   -0.5204 H       1  LIG1        0.0637
     31 H          -2.2740    3.4069    1.4065 H       1  LIG1        0.0624
     32 H          -0.3157   -0.2036    1.3948 H       1  LIG1        0.0624
     33 H          -0.7350    3.4381   -0.8877 H       1  LIG1        0.0624
     34 H          -6.1287    1.7358    0.5890 H       1  LIG1        0.0618
     35 H          -4.7173    3.5258    1.5705 H       1  LIG1        0.0618
     36 H           2.1092   -0.0475    1.1865 H       1  LIG1        0.0625
     37 H           1.7027    3.6334   -1.0118 H       1  LIG1        0.0625
     38 H          -0.6172   -3.5178   -1.3035 H       1  LIG1        0.0280
     39 H          -1.6291   -4.5238   -2.3577 H       1  LIG1        0.0280
     40 H          -0.6373   -5.2667   -1.0883 H       1  LIG1        0.0280
     41 H          -4.3281   -7.1977   -0.2724 H       1  LIG1        0.0294
     42 H          -2.5668   -7.3191   -0.1132 H       1  LIG1        0.0294
     43 H          -3.2891   -6.7368   -1.6275 H       1  LIG1        0.0294
     44 H           6.3105    0.3918   -0.1484 H       1  LIG1        0.1046
     45 H           6.3940    3.1674   -0.5798 H       1  LIG1        0.0862
@<TRIPOS>BOND
     1     1     3    2
     2     1     4    2
     3     1     6    1
     4     1     9    1
     5     2     7   ar
     6     2    13   ar
     7     5    26   ar
     8     5    27   ar
     9     6    13    1
    10     7    21   ar
    11     8    26   ar
    12     8    28   ar
    13     9    10   ar
    14     9    12   ar
    15    10    11    1
    16    10    14   ar
    17    11    16   ar
    18    11    17   ar
    19    12    18   ar
    20    13    15   ar
    21    14    19   ar
    22    15    21   ar
    23    15    24    1
    24    16    22   ar
    25    17    23   ar
    26    18    19   ar
    27    20    22   ar
    28    20    23   ar
    29    20    26    1
    30    21    25    1
    31    27    28   ar
    32     6    29    1
    33    12    30    1
    34    14    31    1
    35    16    32    1
    36    17    33    1
    37    18    34    1
    38    19    35    1
    39    22    36    1
    40    23    37    1
    41    24    38    1
    42    24    39    1
    43    24    40    1
    44    25    41    1
    45    25    42    1
    46    25    43    1
    47    27    44    1
    48    28    45    1
@<TRIPOS>MOLECULE
9843631
 45 48 0 0 0
SMALL
GASTEIGER

@<TRIPOS>ATOM
      1 S          -2.4140   -0.8732   -1.1731 S.O2    1  LIG1        0.0752
      2 O          -4.0312   -1.0846   -4.4731 O.2     1  LIG1       -0.3377
      3 O          -1.0234   -1.0969   -0.8582 O.2     1  LIG1       -0.1499
      4 O          -3.3831   -1.9387   -1.0160 O.2     1  LIG1       -0.1499
      5 O           4.1195    1.8726   -1.3658 O.2     1  LIG1       -0.4436
      6 N          -2.5435   -0.2419   -2.7503 N.pl3   1  LIG1       -0.1831
      7 N          -4.1335   -2.1435   -5.3500 N.ar    1  LIG1       -0.0810
      8 N           4.3829    2.0914    0.8660 N.ar    1  LIG1       -0.2175
      9 C          -3.0407    0.5346   -0.2584 C.ar    1  LIG1        0.1162
     10 C          -2.2291    1.5953    0.1888 C.ar    1  LIG1        0.0087
     11 C          -0.7639    1.6716    0.0676 C.ar    1  LIG1       -0.0160
     12 C          -4.4335    0.5503   -0.0355 C.ar    1  LIG1       -0.0345
     13 C          -2.8961   -1.2046   -3.7333 C.ar    1  LIG1        0.2399
     14 C          -2.8797    2.6741    0.8310 C.ar    1  LIG1       -0.0521
     15 C          -2.1860   -2.3050   -4.1617 C.ar    1  LIG1        0.0350
     16 C          -0.1188    1.8139   -1.1689 C.ar    1  LIG1       -0.0533
     17 C           0.0313    1.6561    1.2258 C.ar    1  LIG1       -0.0533
     18 C          -5.0388    1.6257    0.6086 C.ar    1  LIG1       -0.0599
     19 C          -4.2617    2.6930    1.0352 C.ar    1  LIG1       -0.0611
     20 C           2.0681    1.8706   -0.0876 C.ar    1  LIG1        0.0369
     21 C          -3.0306   -2.8755   -5.1592 C.ar    1  LIG1        0.0854
     22 C           1.2798    1.8966   -1.2459 C.ar    1  LIG1       -0.0489
     23 C           1.4238    1.7610    1.1499 C.ar    1  LIG1       -0.0489
     24 C          -0.8515   -2.7883   -3.7405 C.3     1  LIG1       -0.0330
     25 C          -2.8045   -4.0935   -5.9714 C.3     1  LIG1       -0.0188
     26 C           3.5255    1.9561   -0.1306 C.ar    1  LIG1        0.2271
     27 C           5.4522    1.9555   -1.1026 C.ar    1  LIG1        0.1125
     28 C           5.6093    2.0942    0.2544 C.ar    1  LIG1        0.0663
     29 H          -3.1972    0.5407   -2.7743 H       1  LIG1        0.1768
     30 H          -5.0610   -0.2770   -0.3669 H       1  LIG1        0.0637
     31 H          -2.2954    3.5247    1.1831 H       1  LIG1        0.0624
     32 H          -0.6913    1.8500   -2.0920 H       1  LIG1        0.0624
     33 H          -0.4307    1.5586    2.2068 H       1  LIG1        0.0624
     34 H          -6.1133    1.6290    0.7750 H       1  LIG1        0.0618
     35 H          -4.7248    3.5402    1.5357 H       1  LIG1        0.0618
     36 H           1.7453    1.9809   -2.2258 H       1  LIG1        0.0625
     37 H           2.0083    1.7452    2.0693 H       1  LIG1        0.0625
     38 H          -0.2724   -2.0026   -3.2472 H       1  LIG1        0.0280
     39 H          -0.2714   -3.1130   -4.6107 H       1  LIG1        0.0280
     40 H          -0.9480   -3.6359   -3.0565 H       1  LIG1        0.0280
     41 H          -3.7296   -4.4358   -6.4475 H       1  LIG1        0.0294
     42 H          -2.4282   -4.9108   -5.3481 H       1  LIG1        0.0294
     43 H          -2.0709   -3.8921   -6.7585 H       1  LIG1        0.0294
     44 H           6.1180    1.9014   -1.9494 H       1  LIG1        0.1046
     45 H           6.5267    2.1912    0.8155 H       1  LIG1        0.0862
@<TRIPOS>BOND
     1     1     3    2
     2     1     4    2
     3     1     6    1
     4     1     9    1
     5     2     7   ar
     6     2    13   ar
     7     5    26   ar
     8     5    27   ar
     9     6    13    1
    10     7    21   ar
    11     8    26   ar
    12     8    28   ar
    13     9    10   ar
    14     9    12   ar
    15    10    11    1
    16    10    14   ar
    17    11    16   ar
    18    11    17   ar
    19    12    18   ar
    20    13    15   ar
    21    14    19   ar
    22    15    21   ar
    23    15    24    1
    24    16    22   ar
    25    17    23   ar
    26    18    19   ar
    27    20    22   ar
    28    20    23   ar
    29    20    26    1
    30    21    25    1
    31    27    28   ar
    32     6    29    1
    33    12    30    1
    34    14    31    1
    35    16    32    1
    36    17    33    1
    37    18    34    1
    38    19    35    1
    39    22    36    1
    40    23    37    1
    41    24    38    1
    42    24    39    1
    43    24    40    1
    44    25    41    1
    45    25    42    1
    46    25    43    1
    47    27    44    1
    48    28    45    1
@<TRIPOS>MOLECULE
9843631
 45 48 0 0 0
SMALL
GASTEIGER

@<TRIPOS>ATOM
      1 S          -2.3765   -0.8866   -1.1403 S.O2    1  LIG1        0.0752
      2 O          -4.0326   -1.1136   -4.3965 O.2     1  LIG1       -0.3377
      3 O          -0.9897   -1.1172   -0.8077 O.2     1  LIG1       -0.1499
      4 O          -3.3508   -1.9444   -0.9817 O.2     1  LIG1       -0.1499
      5 O           4.1877    1.3996   -1.1672 O.2     1  LIG1       -0.4436
      6 N          -2.4870   -0.2680   -2.7252 N.pl3   1  LIG1       -0.1831
      7 N          -4.1552   -2.1654   -5.2785 N.ar    1  LIG1       -0.0810
      8 N           4.3967    2.3956    0.8494 N.ar    1  LIG1       -0.2175
      9 C          -3.0023    0.5378   -0.2496 C.ar    1  LIG1        0.1162
     10 C          -2.1977    1.6164    0.1703 C.ar    1  LIG1        0.0087
     11 C          -0.7285    1.7001    0.0655 C.ar    1  LIG1       -0.0160
     12 C          -4.3969    0.5502   -0.0288 C.ar    1  LIG1       -0.0345
     13 C          -2.8738   -1.2315   -3.6949 C.ar    1  LIG1        0.2399
     14 C          -2.8623    2.7086    0.7767 C.ar    1  LIG1       -0.0521
     15 C          -2.1714   -2.3252   -4.1507 C.ar    1  LIG1        0.0350
     16 C          -0.0532    1.7069   -1.1631 C.ar    1  LIG1       -0.0533
     17 C           0.0435    1.8281    1.2344 C.ar    1  LIG1       -0.0533
     18 C          -5.0124    1.6375    0.5840 C.ar    1  LIG1       -0.0599
     19 C          -4.2450    2.7230    0.9788 C.ar    1  LIG1       -0.0611
     20 C           2.1080    1.8795   -0.0464 C.ar    1  LIG1        0.0369
     21 C          -3.0413   -2.8907   -5.1289 C.ar    1  LIG1        0.0854
     22 C           1.3473    1.7713   -1.2175 C.ar    1  LIG1       -0.0489
     23 C           1.4370    1.9303    1.1794 C.ar    1  LIG1       -0.0489
     24 C          -0.8214   -2.8019   -3.7753 C.3     1  LIG1       -0.0330
     25 C          -2.8286   -4.0957   -5.9644 C.3     1  LIG1       -0.0188
     26 C           3.5651    1.9375   -0.0690 C.ar    1  LIG1        0.2271
     27 C           5.5153    1.5309   -0.8938 C.ar    1  LIG1        0.1125
     28 C           5.6389    2.1495    0.3236 C.ar    1  LIG1        0.0663
     29 H          -3.1288    0.5249   -2.7513 H       1  LIG1        0.1768
     30 H          -5.0186   -0.2894   -0.3391 H       1  LIG1        0.0637
     31 H          -2.2885    3.5765    1.1046 H       1  LIG1        0.0624
     32 H          -0.6006    1.6400   -2.0994 H       1  LIG1        0.0624
     33 H          -0.4384    1.8443    2.2108 H       1  LIG1        0.0624
     34 H          -6.0872    1.6363    0.7487 H       1  LIG1        0.0618
     35 H          -4.7157    3.5811    1.4529 H       1  LIG1        0.0618
     36 H           1.8379    1.7357   -2.1881 H       1  LIG1        0.0625
     37 H           2.0010    2.0287    2.1057 H       1  LIG1        0.0625
     38 H          -0.2642   -2.0502   -3.2103 H       1  LIG1        0.0280
     39 H          -0.2359   -3.0267   -4.6737 H       1  LIG1        0.0280
     40 H          -0.8888   -3.7127   -3.1731 H       1  LIG1        0.0280
     41 H          -3.7590   -4.4232   -6.4406 H       1  LIG1        0.0294
     42 H          -2.4534   -4.9258   -5.3580 H       1  LIG1        0.0294
     43 H          -2.0992   -3.8847   -6.7527 H       1  LIG1        0.0294
     44 H           6.2021    1.1487   -1.6336 H       1  LIG1        0.1046
     45 H           6.5437    2.4207    0.8487 H       1  LIG1        0.0862
@<TRIPOS>BOND
     1     1     3    2
     2     1     4    2
     3     1     6    1
     4     1     9    1
     5     2     7   ar
     6     2    13   ar
     7     5    26   ar
     8     5    27   ar
     9     6    13    1
    10     7    21   ar
    11     8    26   ar
    12     8    28   ar
    13     9    10   ar
    14     9    12   ar
    15    10    11    1
    16    10    14   ar
    17    11    16   ar
    18    11    17   ar
    19    12    18   ar
    20    13    15   ar
    21    14    19   ar
    22    15    21   ar
    23    15    24    1
    24    16    22   ar
    25    17    23   ar
    26    18    19   ar
    27    20    22   ar
    28    20    23   ar
    29    20    26    1
    30    21    25    1
    31    27    28   ar
    32     6    29    1
    33    12    30    1
    34    14    31    1
    35    16    32    1
    36    17    33    1
    37    18    34    1
    38    19    35    1
    39    22    36    1
    40    23    37    1
    41    24    38    1
    42    24    39    1
    43    24    40    1
    44    25    41    1
    45    25    42    1
    46    25    43    1
    47    27    44    1
    48    28    45    1
@<TRIPOS>MOLECULE
9843631
 45 48 0 0 0
SMALL
GASTEIGER

@<TRIPOS>ATOM
      1 S          -2.4983   -1.0353   -0.4967 S.O2    1  LIG1        0.0752
      2 O          -4.5020   -0.8473   -2.8542 O.2     1  LIG1       -0.3377
      3 O          -1.2251   -1.1909    0.1758 O.2     1  LIG1       -0.1499
      4 O          -3.5458   -2.0103   -0.2538 O.2     1  LIG1       -0.1499
      5 O           4.0560    1.3368   -1.1892 O.2     1  LIG1       -0.4436
      6 N          -2.1541   -1.0121   -2.1449 N.pl3   1  LIG1       -0.1831
      7 N          -5.3070   -1.3224   -3.8682 N.ar    1  LIG1       -0.0810
      8 N           4.2741    2.2986    0.8426 N.ar    1  LIG1       -0.2175
      9 C          -3.1465    0.5912   -0.1516 C.ar    1  LIG1        0.1162
     10 C          -2.3247    1.7013    0.1248 C.ar    1  LIG1        0.0087
     11 C          -0.8560    1.7116    0.0522 C.ar    1  LIG1       -0.0160
     12 C          -4.5465    0.6930   -0.0352 C.ar    1  LIG1       -0.0345
     13 C          -3.2342   -1.3168   -3.0077 C.ar    1  LIG1        0.2399
     14 C          -2.9640    2.9009    0.5116 C.ar    1  LIG1       -0.0521
     15 C          -3.1802   -2.1160   -4.1307 C.ar    1  LIG1        0.0350
     16 C          -0.1801    1.6228   -1.1730 C.ar    1  LIG1       -0.0533
     17 C          -0.0916    1.8719    1.2195 C.ar    1  LIG1       -0.0533
     18 C          -5.1454    1.8914    0.3453 C.ar    1  LIG1       -0.0599
     19 C          -4.3532    2.9960    0.6244 C.ar    1  LIG1       -0.0611
     20 C           1.9789    1.8085   -0.0557 C.ar    1  LIG1        0.0369
     21 C          -4.5199   -2.1002   -4.6179 C.ar    1  LIG1        0.0854
     22 C           1.2201    1.6574   -1.2249 C.ar    1  LIG1       -0.0489
     23 C           1.3046    1.9269    1.1655 C.ar    1  LIG1       -0.0489
     24 C          -2.0459   -2.8925   -4.6802 C.3     1  LIG1       -0.0330
     25 C          -5.0912   -2.8389   -5.7699 C.3     1  LIG1       -0.0188
     26 C           3.4373    1.8542   -0.0780 C.ar    1  LIG1        0.2271
     27 C           5.3841    1.4709   -0.9229 C.ar    1  LIG1        0.1125
     28 C           5.5133    2.0665    0.3053 C.ar    1  LIG1        0.0663
     29 H          -1.2268   -1.3768   -2.3431 H       1  LIG1        0.1768
     30 H          -5.1852   -0.1679   -0.2297 H       1  LIG1        0.0637
     31 H          -2.3665    3.7842    0.7373 H       1  LIG1        0.0624
     32 H          -0.7398    1.5367   -2.1018 H       1  LIG1        0.0624
     33 H          -0.5818    1.9517    2.1886 H       1  LIG1        0.0624
     34 H          -6.2273    1.9543    0.4355 H       1  LIG1        0.0618
     35 H          -4.8110    3.9311    0.9350 H       1  LIG1        0.0618
     36 H           1.7134    1.5810   -2.1915 H       1  LIG1        0.0625
     37 H           1.8678    2.0527    2.0891 H       1  LIG1        0.0625
     38 H          -1.0887   -2.5792   -4.2542 H       1  LIG1        0.0280
     39 H          -1.9819   -2.7722   -5.7660 H       1  LIG1        0.0280
     40 H          -2.1809   -3.9574   -4.4618 H       1  LIG1        0.0280
     41 H          -6.0762   -2.4500   -6.0500 H       1  LIG1        0.0294
     42 H          -5.2046   -3.8985   -5.5178 H       1  LIG1        0.0294
     43 H          -4.4396   -2.7609   -6.6451 H       1  LIG1        0.0294
     44 H           6.0687    1.1086   -1.6755 H       1  LIG1        0.1046
     45 H           6.4207    2.3323    0.8297 H       1  LIG1        0.0862
@<TRIPOS>BOND
     1     1     3    2
     2     1     4    2
     3     1     6    1
     4     1     9    1
     5     2     7   ar
     6     2    13   ar
     7     5    26   ar
     8     5    27   ar
     9     6    13    1
    10     7    21   ar
    11     8    26   ar
    12     8    28   ar
    13     9    10   ar
    14     9    12   ar
    15    10    11    1
    16    10    14   ar
    17    11    16   ar
    18    11    17   ar
    19    12    18   ar
    20    13    15   ar
    21    14    19   ar
    22    15    21   ar
    23    15    24    1
    24    16    22   ar
    25    17    23   ar
    26    18    19   ar
    27    20    22   ar
    28    20    23   ar
    29    20    26    1
    30    21    25    1
    31    27    28   ar
    32     6    29    1
    33    12    30    1
    34    14    31    1
    35    16    32    1
    36    17    33    1
    37    18    34    1
    38    19    35    1
    39    22    36    1
    40    23    37    1
    41    24    38    1
    42    24    39    1
    43    24    40    1
    44    25    41    1
    45    25    42    1
    46    25    43    1
    47    27    44    1
    48    28    45    1
@<TRIPOS>MOLECULE
9843631
 45 48 0 0 0
SMALL
GASTEIGER

@<TRIPOS>ATOM
      1 S          -2.4079   -0.8781   -1.1627 S.O2    1  LIG1        0.0752
      2 O          -4.0330   -1.0892   -4.4355 O.2     1  LIG1       -0.3377
      3 O          -1.0223   -1.1035   -0.8206 O.2     1  LIG1       -0.1499
      4 O          -3.3807   -1.9410   -1.0162 O.2     1  LIG1       -0.1499
      5 O           4.2005    2.0277    1.0963 O.2     1  LIG1       -0.4436
      6 N          -2.5067   -0.2499   -2.7437 N.pl3   1  LIG1       -0.1831
      7 N          -4.1501   -2.1435   -5.3163 N.ar    1  LIG1       -0.0810
      8 N           4.3022    1.9159   -1.1567 N.ar    1  LIG1       -0.2175
      9 C          -3.0461    0.5353   -0.2635 C.ar    1  LIG1        0.1162
     10 C          -2.2415    1.6002    0.1863 C.ar    1  LIG1        0.0087
     11 C          -0.7738    1.6744    0.0899 C.ar    1  LIG1       -0.0160
     12 C          -4.4420    0.5518   -0.0604 C.ar    1  LIG1       -0.0345
     13 C          -2.8825   -1.2100   -3.7209 C.ar    1  LIG1        0.2399
     14 C          -2.9022    2.6847    0.8077 C.ar    1  LIG1       -0.0521
     15 C          -2.1785   -2.3058   -4.1684 C.ar    1  LIG1        0.0350
     16 C          -0.1045    1.7908   -1.1359 C.ar    1  LIG1       -0.0533
     17 C          -0.0001    1.6795    1.2636 C.ar    1  LIG1       -0.0533
     18 C          -5.0570    1.6327    0.5653 C.ar    1  LIG1       -0.0599
     19 C          -4.2869    2.7048    0.9923 C.ar    1  LIG1       -0.0611
     20 C           2.0623    1.8585   -0.0123 C.ar    1  LIG1        0.0369
     21 C          -3.0401   -2.8720   -5.1530 C.ar    1  LIG1        0.0854
     22 C           1.2948    1.8656   -1.1855 C.ar    1  LIG1       -0.0489
     23 C           1.3948    1.7752    1.2148 C.ar    1  LIG1       -0.0489
     24 C          -0.8342   -2.7863   -3.7775 C.3     1  LIG1       -0.0330
     25 C          -2.8236   -4.0812   -5.9812 C.3     1  LIG1       -0.0188
     26 C           3.5191    1.9291   -0.0927 C.ar    1  LIG1        0.2271
     27 C           5.5104    2.0685    0.7296 C.ar    1  LIG1        0.1125
     28 C           5.5697    1.9948   -0.6381 C.ar    1  LIG1        0.0663
     29 H          -3.1463    0.5436   -2.7725 H       1  LIG1        0.1768
     30 H          -5.0645   -0.2785   -0.3939 H       1  LIG1        0.0637
     31 H          -2.3239    3.5398    1.1595 H       1  LIG1        0.0624
     32 H          -0.6566    1.8084   -2.0718 H       1  LIG1        0.0624
     33 H          -0.4831    1.6021    2.2367 H       1  LIG1        0.0624
     34 H          -6.1341    1.6366    0.7160 H       1  LIG1        0.0618
     35 H          -4.7579    3.5567    1.4768 H       1  LIG1        0.0618
     36 H           1.7882    1.9239   -2.1546 H       1  LIG1        0.0625
     37 H           1.9518    1.7719    2.1491 H       1  LIG1        0.0625
     38 H          -0.2756   -2.0302   -3.2191 H       1  LIG1        0.0280
     39 H          -0.2434   -3.0278   -4.6689 H       1  LIG1        0.0280
     40 H          -0.9115   -3.6878   -3.1624 H       1  LIG1        0.0280
     41 H          -3.7520   -4.4117   -6.4596 H       1  LIG1        0.0294
     42 H          -2.4508   -4.9079   -5.3690 H       1  LIG1        0.0294
     43 H          -2.0908   -3.8743   -6.7676 H       1  LIG1        0.0294
     44 H           6.2340    2.1445    1.5269 H       1  LIG1        0.1046
     45 H           6.4457    1.9954   -1.2712 H       1  LIG1        0.0862
@<TRIPOS>BOND
     1     1     3    2
     2     1     4    2
     3     1     6    1
     4     1     9    1
     5     2     7   ar
     6     2    13   ar
     7     5    26   ar
     8     5    27   ar
     9     6    13    1
    10     7    21   ar
    11     8    26   ar
    12     8    28   ar
    13     9    10   ar
    14     9    12   ar
    15    10    11    1
    16    10    14   ar
    17    11    16   ar
    18    11    17   ar
    19    12    18   ar
    20    13    15   ar
    21    14    19   ar
    22    15    21   ar
    23    15    24    1
    24    16    22   ar
    25    17    23   ar
    26    18    19   ar
    27    20    22   ar
    28    20    23   ar
    29    20    26    1
    30    21    25    1
    31    27    28   ar
    32     6    29    1
    33    12    30    1
    34    14    31    1
    35    16    32    1
    36    17    33    1
    37    18    34    1
    38    19    35    1
    39    22    36    1
    40    23    37    1
    41    24    38    1
    42    24    39    1
    43    24    40    1
    44    25    41    1
    45    25    42    1
    46    25    43    1
    47    27    44    1
    48    28    45    1
@<TRIPOS>MOLECULE
9843631
 45 48 0 0 0
SMALL
GASTEIGER

@<TRIPOS>ATOM
      1 S          -2.3805   -0.9985   -0.9390 S.O2    1  LIG1        0.0752
      2 O          -3.7780   -3.6137    1.2110 O.2     1  LIG1       -0.3377
      3 O          -3.4396   -1.5597   -1.7545 O.2     1  LIG1       -0.1499
      4 O          -1.0809   -0.7435   -1.5160 O.2     1  LIG1       -0.1499
      5 O           4.0608    3.1074   -0.4723 O.2     1  LIG1       -0.4436
      6 N          -2.1886   -1.9304    0.4736 N.pl3   1  LIG1       -0.1831
      7 N          -4.1320   -4.9163    0.9349 N.ar    1  LIG1       -0.0810
      8 N           4.4552    1.0482    0.3654 N.ar    1  LIG1       -0.2175
      9 C          -3.0277    0.4976   -0.1966 C.ar    1  LIG1        0.1162
     10 C          -2.2173    1.5289    0.3185 C.ar    1  LIG1        0.0087
     11 C          -0.7467    1.6001    0.2401 C.ar    1  LIG1       -0.0160
     12 C          -4.4339    0.5723   -0.1039 C.ar    1  LIG1       -0.0345
     13 C          -2.7595   -3.2298    0.3963 C.ar    1  LIG1        0.2399
     14 C          -2.8791    2.6041    0.9557 C.ar    1  LIG1       -0.0521
     15 C          -2.3703   -4.2955   -0.3849 C.ar    1  LIG1        0.0350
     16 C           0.0903    0.6895    0.8993 C.ar    1  LIG1       -0.0533
     17 C          -0.1388    2.6489   -0.4729 C.ar    1  LIG1       -0.0533
     18 C          -5.0501    1.6519    0.5201 C.ar    1  LIG1       -0.0599
     19 C          -4.2711    2.6661    1.0590 C.ar    1  LIG1       -0.0611
     20 C           2.0847    1.8434    0.0921 C.ar    1  LIG1        0.0369
     21 C          -3.2893   -5.3231   -0.0209 C.ar    1  LIG1        0.0854
     22 C           1.4855    0.7983    0.8080 C.ar    1  LIG1       -0.0489
     23 C           1.2531    2.7745   -0.5399 C.ar    1  LIG1       -0.0489
     24 C          -1.2512   -4.3972   -1.3488 C.3     1  LIG1       -0.0330
     25 C          -3.3721   -6.7090   -0.5370 C.3     1  LIG1       -0.0188
     26 C           3.5402    1.9342    0.0153 C.ar    1  LIG1        0.2271
     27 C           5.4083    2.9203   -0.4265 C.ar    1  LIG1        0.1125
     28 C           5.6442    1.6651    0.0717 C.ar    1  LIG1        0.0663
     29 H          -2.5714   -1.4393    1.2803 H       1  LIG1        0.1768
     30 H          -5.0626   -0.2190   -0.5125 H       1  LIG1        0.0637
     31 H          -2.2964    3.4188    1.3866 H       1  LIG1        0.0624
     32 H          -0.3223   -0.1281    1.4823 H       1  LIG1        0.0624
     33 H          -0.7523    3.3850   -0.9903 H       1  LIG1        0.0624
     34 H          -6.1346    1.6984    0.5894 H       1  LIG1        0.0618
     35 H          -4.7424    3.5114    1.5554 H       1  LIG1        0.0618
     36 H           2.1090    0.0551    1.3040 H       1  LIG1        0.0625
     37 H           1.6782    3.6017   -1.1039 H       1  LIG1        0.0625
     38 H          -0.6042   -3.5168   -1.3223 H       1  LIG1        0.0280
     39 H          -1.6315   -4.5161   -2.3678 H       1  LIG1        0.0280
     40 H          -0.6279   -5.2663   -1.1115 H       1  LIG1        0.0280
     41 H          -4.3251   -7.1796   -0.2717 H       1  LIG1        0.0294
     42 H          -2.5643   -7.3163   -0.1179 H       1  LIG1        0.0294
     43 H          -3.2855   -6.7221   -1.6278 H       1  LIG1        0.0294
     44 H           6.0234    3.7380   -0.7717 H       1  LIG1        0.1046
     45 H           6.5951    1.1776    0.2355 H       1  LIG1        0.0862
@<TRIPOS>BOND
     1     1     3    2
     2     1     4    2
     3     1     6    1
     4     1     9    1
     5     2     7   ar
     6     2    13   ar
     7     5    26   ar
     8     5    27   ar
     9     6    13    1
    10     7    21   ar
    11     8    26   ar
    12     8    28   ar
    13     9    10   ar
    14     9    12   ar
    15    10    11    1
    16    10    14   ar
    17    11    16   ar
    18    11    17   ar
    19    12    18   ar
    20    13    15   ar
    21    14    19   ar
    22    15    21   ar
    23    15    24    1
    24    16    22   ar
    25    17    23   ar
    26    18    19   ar
    27    20    22   ar
    28    20    23   ar
    29    20    26    1
    30    21    25    1
    31    27    28   ar
    32     6    29    1
    33    12    30    1
    34    14    31    1
    35    16    32    1
    36    17    33    1
    37    18    34    1
    38    19    35    1
    39    22    36    1
    40    23    37    1
    41    24    38    1
    42    24    39    1
    43    24    40    1
    44    25    41    1
    45    25    42    1
    46    25    43    1
    47    27    44    1
    48    28    45    1
@<TRIPOS>MOLECULE
9843631
 45 48 0 0 0
SMALL
GASTEIGER

@<TRIPOS>ATOM
      1 S          -2.4255   -0.8375   -1.1344 S.O2    1  LIG1        0.0752
      2 O          -4.5879   -2.4806    0.4423 O.2     1  LIG1       -0.3377
      3 O          -3.4499   -1.3845   -2.0022 O.2     1  LIG1       -0.1499
      4 O          -1.1027   -0.5707   -1.6519 O.2     1  LIG1       -0.1499
      5 O           4.2400    0.8726    0.2880 O.2     1  LIG1       -0.4436
      6 N          -2.2263   -1.8476    0.2119 N.pl3   1  LIG1       -0.1831
      7 N          -5.5443   -2.5461    1.4339 N.ar    1  LIG1       -0.0810
      8 N           4.2500    2.9734   -0.5406 N.ar    1  LIG1       -0.2175
      9 C          -3.0686    0.6541   -0.3693 C.ar    1  LIG1        0.1162
     10 C          -2.2458    1.6515    0.1954 C.ar    1  LIG1        0.0087
     11 C          -0.7746    1.6962    0.1377 C.ar    1  LIG1       -0.0160
     12 C          -4.4723    0.7732   -0.3262 C.ar    1  LIG1       -0.0345
     13 C          -3.4050   -2.0630    0.9674 C.ar    1  LIG1        0.2399
     14 C          -2.8924    2.7293    0.8412 C.ar    1  LIG1       -0.0521
     15 C          -3.5600   -1.8400    2.3203 C.ar    1  LIG1        0.0350
     16 C          -0.1409    2.6653   -0.6579 C.ar    1  LIG1       -0.0533
     17 C           0.0362    0.8432    0.8985 C.ar    1  LIG1       -0.0533
     18 C          -5.0747    1.8500    0.3181 C.ar    1  LIG1       -0.0599
     19 C          -4.2842    2.8250    0.9098 C.ar    1  LIG1       -0.0611
     20 C           2.0602    1.8690    0.0049 C.ar    1  LIG1        0.0369
     21 C          -4.9313   -2.1525    2.5546 C.ar    1  LIG1        0.0854
     22 C           1.2538    2.7582   -0.7138 C.ar    1  LIG1       -0.0489
     23 C           1.4349    0.9110    0.8137 C.ar    1  LIG1       -0.0489
     24 C          -2.5901   -1.2902    3.2933 C.3     1  LIG1       -0.0330
     25 C          -5.7111   -2.0406    3.8104 C.3     1  LIG1       -0.0188
     26 C           3.5126    1.9710   -0.0974 C.ar    1  LIG1        0.2271
     27 C           5.5325    1.2291    0.0496 C.ar    1  LIG1        0.1125
     28 C           5.5363    2.5090   -0.4416 C.ar    1  LIG1        0.0663
     29 H          -1.3485   -1.6768    0.6885 H       1  LIG1        0.1768
     30 H          -5.1097    0.0107   -0.7742 H       1  LIG1        0.0637
     31 H          -2.2978    3.5210    1.2986 H       1  LIG1        0.0624
     32 H          -0.7339    3.3626   -1.2474 H       1  LIG1        0.0624
     33 H          -0.4053    0.1191    1.5728 H       1  LIG1        0.0624
     34 H          -6.1591    1.9212    0.3589 H       1  LIG1        0.0618
     35 H          -4.7467    3.6697    1.4144 H       1  LIG1        0.0618
     36 H           1.7107    3.5246   -1.3389 H       1  LIG1        0.0625
     37 H           2.0344    0.2137    1.3959 H       1  LIG1        0.0625
     38 H          -1.5583   -1.5042    3.0000 H       1  LIG1        0.0280
     39 H          -2.7433   -1.7119    4.2903 H       1  LIG1        0.0280
     40 H          -2.7081   -0.2025    3.3616 H       1  LIG1        0.0280
     41 H          -6.5247   -2.7733    3.8386 H       1  LIG1        0.0294
     42 H          -6.1486   -1.0403    3.8921 H       1  LIG1        0.0294
     43 H          -5.0803   -2.2119    4.6872 H       1  LIG1        0.0294
     44 H           6.2880    0.4910    0.2732 H       1  LIG1        0.1046
     45 H           6.3844    3.1131   -0.7320 H       1  LIG1        0.0862
@<TRIPOS>BOND
     1     1     3    2
     2     1     4    2
     3     1     6    1
     4     1     9    1
     5     2     7   ar
     6     2    13   ar
     7     5    26   ar
     8     5    27   ar
     9     6    13    1
    10     7    21   ar
    11     8    26   ar
    12     8    28   ar
    13     9    10   ar
    14     9    12   ar
    15    10    11    1
    16    10    14   ar
    17    11    16   ar
    18    11    17   ar
    19    12    18   ar
    20    13    15   ar
    21    14    19   ar
    22    15    21   ar
    23    15    24    1
    24    16    22   ar
    25    17    23   ar
    26    18    19   ar
    27    20    22   ar
    28    20    23   ar
    29    20    26    1
    30    21    25    1
    31    27    28   ar
    32     6    29    1
    33    12    30    1
    34    14    31    1
    35    16    32    1
    36    17    33    1
    37    18    34    1
    38    19    35    1
    39    22    36    1
    40    23    37    1
    41    24    38    1
    42    24    39    1
    43    24    40    1
    44    25    41    1
    45    25    42    1
    46    25    43    1
    47    27    44    1
    48    28    45    1
@<TRIPOS>MOLECULE
9843631
 45 48 0 0 0
SMALL
GASTEIGER

@<TRIPOS>ATOM
      1 S          -2.4393   -0.8913   -1.1615 S.O2    1  LIG1        0.0752
      2 O          -4.0644   -1.1202   -4.4465 O.2     1  LIG1       -0.3377
      3 O          -1.0533   -1.1258   -0.8406 O.2     1  LIG1       -0.1499
      4 O          -3.4192   -1.9480   -1.0016 O.2     1  LIG1       -0.1499
      5 O           4.1280    1.6088   -1.3027 O.2     1  LIG1       -0.4436
      6 N          -2.5608   -0.2654   -2.7417 N.pl3   1  LIG1       -0.1831
      7 N          -4.1635   -2.1742   -5.3289 N.ar    1  LIG1       -0.0810
      8 N           4.3622    2.2094    0.8616 N.ar    1  LIG1       -0.2175
      9 C          -3.0572    0.5292   -0.2581 C.ar    1  LIG1        0.1162
     10 C          -2.2422    1.5947    0.1730 C.ar    1  LIG1        0.0087
     11 C          -0.7747    1.6667    0.0585 C.ar    1  LIG1       -0.0160
     12 C          -4.4507    0.5519   -0.0348 C.ar    1  LIG1       -0.0345
     13 C          -2.9193   -1.2303   -3.7211 C.ar    1  LIG1        0.2399
     14 C          -2.8929    2.6848    0.7968 C.ar    1  LIG1       -0.0521
     15 C          -2.2011   -2.3198   -4.1629 C.ar    1  LIG1        0.0350
     16 C          -0.1145    1.7295   -1.1768 C.ar    1  LIG1       -0.0533
     17 C           0.0098    1.7293    1.2234 C.ar    1  LIG1       -0.0533
     18 C          -5.0539    1.6378    0.5932 C.ar    1  LIG1       -0.0599
     19 C          -4.2748    2.7102    1.0020 C.ar    1  LIG1       -0.0611
     20 C           2.0609    1.8469   -0.0784 C.ar    1  LIG1        0.0369
     21 C          -3.0489   -2.8930   -5.1556 C.ar    1  LIG1        0.0854
     22 C           1.2853    1.7989   -1.2440 C.ar    1  LIG1       -0.0489
     23 C           1.4031    1.8282    1.1568 C.ar    1  LIG1       -0.0489
     24 C          -0.8558   -2.7873   -3.7595 C.3     1  LIG1       -0.0330
     25 C          -2.8141   -4.1000   -5.9824 C.3     1  LIG1       -0.0188
     26 C           3.5185    1.9166   -0.1122 C.ar    1  LIG1        0.2271
     27 C           5.4584    1.7140   -1.0326 C.ar    1  LIG1        0.1125
     28 C           5.5971    2.0880    0.2790 C.ar    1  LIG1        0.0663
     29 H          -3.2160    0.5163   -2.7676 H       1  LIG1        0.1768
     30 H          -5.0809   -0.2780   -0.3540 H       1  LIG1        0.0637
     31 H          -2.3083    3.5412    1.1353 H       1  LIG1        0.0624
     32 H          -0.6747    1.7083   -2.1077 H       1  LIG1        0.0624
     33 H          -0.4618    1.6979    2.2042 H       1  LIG1        0.0624
     34 H          -6.1285    1.6460    0.7600 H       1  LIG1        0.0618
     35 H          -4.7358    3.5664    1.4889 H       1  LIG1        0.0618
     36 H           1.7627    1.8150   -2.2215 H       1  LIG1        0.0625
     37 H           1.9775    1.8750    2.0810 H       1  LIG1        0.0625
     38 H          -0.2925   -2.0078   -3.2400 H       1  LIG1        0.0280
     39 H          -0.2710   -3.0697   -4.6419 H       1  LIG1        0.0280
     40 H          -0.9326   -3.6604   -3.1051 H       1  LIG1        0.0280
     41 H          -3.7357   -4.4405   -6.4667 H       1  LIG1        0.0294
     42 H          -2.4364   -4.9229   -5.3675 H       1  LIG1        0.0294
     43 H          -2.0785   -3.8855   -6.7639 H       1  LIG1        0.0294
     44 H           6.1362    1.4983   -1.8447 H       1  LIG1        0.1046
     45 H           6.5083    2.2695    0.8318 H       1  LIG1        0.0862
@<TRIPOS>BOND
     1     1     3    2
     2     1     4    2
     3     1     6    1
     4     1     9    1
     5     2     7   ar
     6     2    13   ar
     7     5    26   ar
     8     5    27   ar
     9     6    13    1
    10     7    21   ar
    11     8    26   ar
    12     8    28   ar
    13     9    10   ar
    14     9    12   ar
    15    10    11    1
    16    10    14   ar
    17    11    16   ar
    18    11    17   ar
    19    12    18   ar
    20    13    15   ar
    21    14    19   ar
    22    15    21   ar
    23    15    24    1
    24    16    22   ar
    25    17    23   ar
    26    18    19   ar
    27    20    22   ar
    28    20    23   ar
    29    20    26    1
    30    21    25    1
    31    27    28   ar
    32     6    29    1
    33    12    30    1
    34    14    31    1
    35    16    32    1
    36    17    33    1
    37    18    34    1
    38    19    35    1
    39    22    36    1
    40    23    37    1
    41    24    38    1
    42    24    39    1
    43    24    40    1
    44    25    41    1
    45    25    42    1
    46    25    43    1
    47    27    44    1
    48    28    45    1
@<TRIPOS>MOLECULE
9843631
 45 48 0 0 0
SMALL
GASTEIGER

@<TRIPOS>ATOM
      1 S          -2.4136   -0.8846   -1.1525 S.O2    1  LIG1        0.0752
      2 O          -4.0308   -1.1024   -4.4356 O.2     1  LIG1       -0.3377
      3 O          -1.0302   -1.1169   -0.8125 O.2     1  LIG1       -0.1499
      4 O          -3.3933   -1.9396   -1.0022 O.2     1  LIG1       -0.1499
      5 O           4.1968    2.2666    1.0447 O.2     1  LIG1       -0.4436
      6 N          -2.5150   -0.2598   -2.7354 N.pl3   1  LIG1       -0.1831
      7 N          -4.1419   -2.1564   -5.3162 N.ar    1  LIG1       -0.0810
      8 N           4.3188    1.8200   -1.1653 N.ar    1  LIG1       -0.2175
      9 C          -3.0415    0.5375   -0.2579 C.ar    1  LIG1        0.1162
     10 C          -2.2315    1.6041    0.1795 C.ar    1  LIG1        0.0087
     11 C          -0.7633    1.6792    0.0767 C.ar    1  LIG1       -0.0160
     12 C          -4.4366    0.5586   -0.0474 C.ar    1  LIG1       -0.0345
     13 C          -2.8851   -1.2221   -3.7130 C.ar    1  LIG1        0.2399
     14 C          -2.8889    2.6944    0.7959 C.ar    1  LIG1       -0.0521
     15 C          -2.1779   -2.3183   -4.1549 C.ar    1  LIG1        0.0350
     16 C          -0.0944    1.7525   -1.1526 C.ar    1  LIG1       -0.0533
     17 C           0.0125    1.7363    1.2481 C.ar    1  LIG1       -0.0533
     18 C          -5.0466    1.6445    0.5739 C.ar    1  LIG1       -0.0599
     19 C          -4.2726    2.7183    0.9883 C.ar    1  LIG1       -0.0611
     20 C           2.0723    1.8867   -0.0353 C.ar    1  LIG1        0.0369
     21 C          -3.0331   -2.8847   -5.1454 C.ar    1  LIG1        0.0854
     22 C           1.3045    1.8349   -1.2067 C.ar    1  LIG1       -0.0489
     23 C           1.4065    1.8460    1.1948 C.ar    1  LIG1       -0.0489
     24 C          -0.8360   -2.7978   -3.7547 C.3     1  LIG1       -0.0330
     25 C          -2.8108   -4.0946   -5.9717 C.3     1  LIG1       -0.0188
     26 C           3.5279    1.9722   -0.1183 C.ar    1  LIG1        0.2271
     27 C           5.5084    2.2864    0.6810 C.ar    1  LIG1        0.1125
     28 C           5.5800    2.0046   -0.6587 C.ar    1  LIG1        0.0663
     29 H          -3.1567    0.5324   -2.7668 H       1  LIG1        0.1768
     30 H          -5.0628   -0.2723   -0.3717 H       1  LIG1        0.0637
     31 H          -2.3084    3.5523    1.1376 H       1  LIG1        0.0624
     32 H          -0.6456    1.7316   -2.0887 H       1  LIG1        0.0624
     33 H          -0.4679    1.6921    2.2245 H       1  LIG1        0.0624
     34 H          -6.1228    1.6513    0.7304 H       1  LIG1        0.0618
     35 H          -4.7393    3.5748    1.4693 H       1  LIG1        0.0618
     36 H           1.7972    1.8574   -2.1776 H       1  LIG1        0.0625
     37 H           1.9650    1.8849    2.1278 H       1  LIG1        0.0625
     38 H          -0.2735   -2.0323   -3.2134 H       1  LIG1        0.0280
     39 H          -0.2470   -3.0617   -4.6402 H       1  LIG1        0.0280
     40 H          -0.9183   -3.6856   -3.1207 H       1  LIG1        0.0280
     41 H          -3.7371   -4.4287   -6.4510 H       1  LIG1        0.0294
     42 H          -2.4362   -4.9193   -5.3575 H       1  LIG1        0.0294
     43 H          -2.0775   -3.8861   -6.7568 H       1  LIG1        0.0294
     44 H           6.2237    2.5038    1.4600 H       1  LIG1        0.1046
     45 H           6.4610    1.9279   -1.2801 H       1  LIG1        0.0862
@<TRIPOS>BOND
     1     1     3    2
     2     1     4    2
     3     1     6    1
     4     1     9    1
     5     2     7   ar
     6     2    13   ar
     7     5    26   ar
     8     5    27   ar
     9     6    13    1
    10     7    21   ar
    11     8    26   ar
    12     8    28   ar
    13     9    10   ar
    14     9    12   ar
    15    10    11    1
    16    10    14   ar
    17    11    16   ar
    18    11    17   ar
    19    12    18   ar
    20    13    15   ar
    21    14    19   ar
    22    15    21   ar
    23    15    24    1
    24    16    22   ar
    25    17    23   ar
    26    18    19   ar
    27    20    22   ar
    28    20    23   ar
    29    20    26    1
    30    21    25    1
    31    27    28   ar
    32     6    29    1
    33    12    30    1
    34    14    31    1
    35    16    32    1
    36    17    33    1
    37    18    34    1
    38    19    35    1
    39    22    36    1
    40    23    37    1
    41    24    38    1
    42    24    39    1
    43    24    40    1
    44    25    41    1
    45    25    42    1
    46    25    43    1
    47    27    44    1
    48    28    45    1
@<TRIPOS>MOLECULE
9843631
 45 48 0 0 0
SMALL
GASTEIGER

@<TRIPOS>ATOM
      1 S          -2.4735   -1.0186   -0.5287 S.O2    1  LIG1        0.0752
      2 O          -4.4780   -0.8049   -2.8858 O.2     1  LIG1       -0.3377
      3 O          -1.1984   -1.1778    0.1386 O.2     1  LIG1       -0.1499
      4 O          -3.5087   -2.0054   -0.2974 O.2     1  LIG1       -0.1499
      5 O           4.1096    2.2654    1.0313 O.2     1  LIG1       -0.4436
      6 N          -2.1308   -0.9659   -2.1782 N.pl3   1  LIG1       -0.1831
      7 N          -5.2872   -1.2938   -3.8902 N.ar    1  LIG1       -0.0810
      8 N           4.2304    1.7211   -1.1575 N.ar    1  LIG1       -0.2175
      9 C          -3.1316    0.5948   -0.1555 C.ar    1  LIG1        0.1162
     10 C          -2.3193    1.7061    0.1410 C.ar    1  LIG1        0.0087
     11 C          -0.8511    1.7281    0.0687 C.ar    1  LIG1       -0.0160
     12 C          -4.5329    0.6852   -0.0399 C.ar    1  LIG1       -0.0345
     13 C          -3.2124   -1.2818   -3.0345 C.ar    1  LIG1        0.2399
     14 C          -2.9669    2.8947    0.5469 C.ar    1  LIG1       -0.0521
     15 C          -3.1637   -2.1002   -4.1434 C.ar    1  LIG1        0.0350
     16 C          -0.1774    1.6960   -1.1598 C.ar    1  LIG1       -0.0533
     17 C          -0.0868    1.8410    1.2414 C.ar    1  LIG1       -0.0533
     18 C          -5.1408    1.8729    0.3595 C.ar    1  LIG1       -0.0599
     19 C          -4.3566    2.9781    0.6584 C.ar    1  LIG1       -0.0611
     20 C           1.9827    1.8629   -0.0372 C.ar    1  LIG1        0.0369
     21 C          -4.5045   -2.0875   -4.6280 C.ar    1  LIG1        0.0854
     22 C           1.2215    1.7513   -1.2100 C.ar    1  LIG1       -0.0489
     23 C           1.3095    1.9102    1.1900 C.ar    1  LIG1       -0.0489
     24 C          -2.0345   -2.8927   -4.6798 C.3     1  LIG1       -0.0330
     25 C          -5.0811   -2.8436   -5.7656 C.3     1  LIG1       -0.0188
     26 C           3.4389    1.9272   -0.1177 C.ar    1  LIG1        0.2271
     27 C           5.4215    2.2606    0.6687 C.ar    1  LIG1        0.1125
     28 C           5.4922    1.9218   -0.6578 C.ar    1  LIG1        0.0663
     29 H          -1.2020   -1.3250   -2.3805 H       1  LIG1        0.1768
     30 H          -5.1652   -0.1770   -0.2503 H       1  LIG1        0.0637
     31 H          -2.3751    3.7781    0.7876 H       1  LIG1        0.0624
     32 H          -0.7364    1.6394   -2.0913 H       1  LIG1        0.0624
     33 H          -0.5784    1.8715    2.2125 H       1  LIG1        0.0624
     34 H          -6.2233    1.9272    0.4480 H       1  LIG1        0.0618
     35 H          -4.8218    3.9055    0.9828 H       1  LIG1        0.0618
     36 H           1.7210    1.7184   -2.1771 H       1  LIG1        0.0625
     37 H           1.8638    1.9938    2.1224 H       1  LIG1        0.0625
     38 H          -1.0774   -2.5947   -4.2431 H       1  LIG1        0.0280
     39 H          -1.9574   -2.7743   -5.7651 H       1  LIG1        0.0280
     40 H          -2.1875   -3.9557   -4.4628 H       1  LIG1        0.0280
     41 H          -6.0671   -2.4592   -6.0470 H       1  LIG1        0.0294
     42 H          -5.1931   -3.8992   -5.4968 H       1  LIG1        0.0294
     43 H          -4.4332   -2.7791   -6.6451 H       1  LIG1        0.0294
     44 H           6.1378    2.5070    1.4380 H       1  LIG1        0.1046
     45 H           6.3732    1.8149   -1.2751 H       1  LIG1        0.0862
@<TRIPOS>BOND
     1     1     3    2
     2     1     4    2
     3     1     6    1
     4     1     9    1
     5     2     7   ar
     6     2    13   ar
     7     5    26   ar
     8     5    27   ar
     9     6    13    1
    10     7    21   ar
    11     8    26   ar
    12     8    28   ar
    13     9    10   ar
    14     9    12   ar
    15    10    11    1
    16    10    14   ar
    17    11    16   ar
    18    11    17   ar
    19    12    18   ar
    20    13    15   ar
    21    14    19   ar
    22    15    21   ar
    23    15    24    1
    24    16    22   ar
    25    17    23   ar
    26    18    19   ar
    27    20    22   ar
    28    20    23   ar
    29    20    26    1
    30    21    25    1
    31    27    28   ar
    32     6    29    1
    33    12    30    1
    34    14    31    1
    35    16    32    1
    36    17    33    1
    37    18    34    1
    38    19    35    1
    39    22    36    1
    40    23    37    1
    41    24    38    1
    42    24    39    1
    43    24    40    1
    44    25    41    1
    45    25    42    1
    46    25    43    1
    47    27    44    1
    48    28    45    1
@<TRIPOS>MOLECULE
9843631
 45 48 0 0 0
SMALL
GASTEIGER

@<TRIPOS>ATOM
      1 S          -2.4478   -0.9723   -0.8786 S.O2    1  LIG1        0.0752
      2 O          -3.0173    1.4277   -3.5262 O.2     1  LIG1       -0.3377
      3 O          -1.1538   -1.2176   -0.2809 O.2     1  LIG1       -0.1499
      4 O          -3.4813   -1.9871   -0.8045 O.2     1  LIG1       -0.1499
      5 O           4.0537    1.4237   -1.2194 O.2     1  LIG1       -0.4436
      6 N          -2.1704   -0.6259   -2.5213 N.pl3   1  LIG1       -0.1831
      7 N          -4.1968    1.9255   -4.0411 N.ar    1  LIG1       -0.0810
      8 N           4.2848    2.2751    0.8605 N.ar    1  LIG1       -0.2175
      9 C          -3.1174    0.5442   -0.1998 C.ar    1  LIG1        0.1162
     10 C          -2.3127    1.6466    0.1543 C.ar    1  LIG1        0.0087
     11 C          -0.8456    1.7008    0.0589 C.ar    1  LIG1       -0.0160
     12 C          -4.5106    0.5776    0.0100 C.ar    1  LIG1       -0.0345
     13 C          -3.1927    0.1323   -3.1509 C.ar    1  LIG1        0.2399
     14 C          -2.9661    2.7815    0.6828 C.ar    1  LIG1       -0.0521
     15 C          -4.4513   -0.2828   -3.5171 C.ar    1  LIG1        0.0350
     16 C          -0.1820    1.8588   -1.1657 C.ar    1  LIG1       -0.0533
     17 C          -0.0699    1.6581    1.2296 C.ar    1  LIG1       -0.0533
     18 C          -5.1220    1.7120    0.5378 C.ar    1  LIG1       -0.0599
     19 C          -4.3498    2.8168    0.8695 C.ar    1  LIG1       -0.0611
     20 C           1.9872    1.8366   -0.0532 C.ar    1  LIG1        0.0369
     21 C          -5.0571    0.9007   -4.0292 C.ar    1  LIG1        0.0854
     22 C           1.2180    1.8987   -1.2237 C.ar    1  LIG1       -0.0489
     23 C           1.3244    1.7383    1.1746 C.ar    1  LIG1       -0.0489
     24 C          -5.0594   -1.6320   -3.4327 C.3     1  LIG1       -0.0330
     25 C          -6.4388    1.0845   -4.5317 C.3     1  LIG1       -0.0188
     26 C           3.4436    1.8861   -0.0815 C.ar    1  LIG1        0.2271
     27 C           5.3849    1.5314   -0.9494 C.ar    1  LIG1        0.1125
     28 C           5.5213    2.0638    0.3068 C.ar    1  LIG1        0.0663
     29 H          -1.2368   -0.2237   -2.5999 H       1  LIG1        0.1768
     30 H          -5.1329   -0.2802   -0.2380 H       1  LIG1        0.0637
     31 H          -2.3835    3.6593    0.9637 H       1  LIG1        0.0624
     32 H          -0.7464    1.9741   -2.0872 H       1  LIG1        0.0624
     33 H          -0.5512    1.5622    2.2013 H       1  LIG1        0.0624
     34 H          -6.1977    1.7312    0.6919 H       1  LIG1        0.0618
     35 H          -4.8188    3.7070    1.2830 H       1  LIG1        0.0618
     36 H           1.7055    2.0033   -2.1913 H       1  LIG1        0.0625
     37 H           1.8960    1.7081    2.1016 H       1  LIG1        0.0625
     38 H          -4.2966   -2.4131   -3.3556 H       1  LIG1        0.0280
     39 H          -5.6451   -1.8438   -4.3331 H       1  LIG1        0.0280
     40 H          -5.7253   -1.7018   -2.5689 H       1  LIG1        0.0280
     41 H          -6.7239    2.1413   -4.5432 H       1  LIG1        0.0294
     42 H          -7.1552    0.5559   -3.8937 H       1  LIG1        0.0294
     43 H          -6.5295    0.6929   -5.5493 H       1  LIG1        0.0294
     44 H           6.0648    1.1989   -1.7196 H       1  LIG1        0.1046
     45 H           6.4322    2.2968    0.8412 H       1  LIG1        0.0862
@<TRIPOS>BOND
     1     1     3    2
     2     1     4    2
     3     1     6    1
     4     1     9    1
     5     2     7   ar
     6     2    13   ar
     7     5    26   ar
     8     5    27   ar
     9     6    13    1
    10     7    21   ar
    11     8    26   ar
    12     8    28   ar
    13     9    10   ar
    14     9    12   ar
    15    10    11    1
    16    10    14   ar
    17    11    16   ar
    18    11    17   ar
    19    12    18   ar
    20    13    15   ar
    21    14    19   ar
    22    15    21   ar
    23    15    24    1
    24    16    22   ar
    25    17    23   ar
    26    18    19   ar
    27    20    22   ar
    28    20    23   ar
    29    20    26    1
    30    21    25    1
    31    27    28   ar
    32     6    29    1
    33    12    30    1
    34    14    31    1
    35    16    32    1
    36    17    33    1
    37    18    34    1
    38    19    35    1
    39    22    36    1
    40    23    37    1
    41    24    38    1
    42    24    39    1
    43    24    40    1
    44    25    41    1
    45    25    42    1
    46    25    43    1
    47    27    44    1
    48    28    45    1
@<TRIPOS>MOLECULE
9843631
 45 48 0 0 0
SMALL
GASTEIGER

@<TRIPOS>ATOM
      1 S          -2.4041   -0.9503   -0.8614 S.O2    1  LIG1        0.0752
      2 O          -2.4914   -2.6360   -3.5095 O.2     1  LIG1       -0.3377
      3 O          -0.9915   -1.1162   -0.6158 O.2     1  LIG1       -0.1499
      4 O          -3.3478   -2.0064   -0.5590 O.2     1  LIG1       -0.1499
      5 O           4.2286    2.2866    1.0514 O.2     1  LIG1       -0.4436
      6 N          -2.6534   -0.4152   -2.4530 N.pl3   1  LIG1       -0.1831
      7 N          -3.1744   -3.3600   -4.4710 N.ar    1  LIG1       -0.0810
      8 N           4.3154    1.8320   -1.1585 N.ar    1  LIG1       -0.2175
      9 C          -3.0145    0.5189   -0.0282 C.ar    1  LIG1        0.1162
     10 C          -2.2081    1.6224    0.3055 C.ar    1  LIG1        0.0087
     11 C          -0.7442    1.6976    0.1736 C.ar    1  LIG1       -0.0160
     12 C          -4.4079    0.5466    0.2006 C.ar    1  LIG1       -0.0345
     13 C          -3.0951   -1.4320   -3.3342 C.ar    1  LIG1        0.2399
     14 C          -2.8654    2.7539    0.8411 C.ar    1  LIG1       -0.0521
     15 C          -4.2064   -1.3479   -4.1465 C.ar    1  LIG1        0.0350
     16 C           0.0484    1.8032    1.3293 C.ar    1  LIG1       -0.0533
     17 C          -0.0966    1.7206   -1.0691 C.ar    1  LIG1       -0.0533
     18 C          -5.0187    1.6751    0.7380 C.ar    1  LIG1       -0.0599
     19 C          -4.2470    2.7845    1.0503 C.ar    1  LIG1       -0.0611
     20 C           2.0870    1.9043    0.0079 C.ar    1  LIG1        0.0369
     21 C          -4.2067   -2.5923   -4.8362 C.ar    1  LIG1        0.0854
     22 C           1.4404    1.9117    1.2489 C.ar    1  LIG1       -0.0489
     23 C           1.3013    1.8042   -1.1486 C.ar    1  LIG1       -0.0489
     24 C          -5.2249   -0.2766   -4.2377 C.3     1  LIG1       -0.0330
     25 C          -5.1939   -3.0928   -5.8218 C.3     1  LIG1       -0.0188
     26 C           3.5408    1.9884   -0.0999 C.ar    1  LIG1        0.2271
     27 C           5.5344    2.2994    0.6680 C.ar    1  LIG1        0.1125
     28 C           5.5849    2.0126   -0.6713 C.ar    1  LIG1        0.0663
     29 H          -3.1722    0.4560   -2.4997 H       1  LIG1        0.1768
     30 H          -5.0299   -0.3131   -0.0481 H       1  LIG1        0.0637
     31 H          -2.2858    3.6396    1.1046 H       1  LIG1        0.0624
     32 H          -0.4172    1.7963    2.3134 H       1  LIG1        0.0624
     33 H          -0.6620    1.6498   -1.9945 H       1  LIG1        0.0624
     34 H          -6.0925    1.6873    0.9093 H       1  LIG1        0.0618
     35 H          -4.7131    3.6741    1.4670 H       1  LIG1        0.0618
     36 H           2.0132    1.9867    2.1707 H       1  LIG1        0.0625
     37 H           1.7792    1.7829   -2.1273 H       1  LIG1        0.0625
     38 H          -4.8876    0.6566   -3.7781 H       1  LIG1        0.0280
     39 H          -6.1403   -0.5892   -3.7230 H       1  LIG1        0.0280
     40 H          -5.4744   -0.0606   -5.2805 H       1  LIG1        0.0280
     41 H          -4.7872   -3.9171   -6.4162 H       1  LIG1        0.0294
     42 H          -5.4902   -2.2976   -6.5134 H       1  LIG1        0.0294
     43 H          -6.0912   -3.4509   -5.3067 H       1  LIG1        0.0294
     44 H           6.2623    2.5156    1.4356 H       1  LIG1        0.1046
     45 H           6.4560    1.9295   -1.3057 H       1  LIG1        0.0862
@<TRIPOS>BOND
     1     1     3    2
     2     1     4    2
     3     1     6    1
     4     1     9    1
     5     2     7   ar
     6     2    13   ar
     7     5    26   ar
     8     5    27   ar
     9     6    13    1
    10     7    21   ar
    11     8    26   ar
    12     8    28   ar
    13     9    10   ar
    14     9    12   ar
    15    10    11    1
    16    10    14   ar
    17    11    16   ar
    18    11    17   ar
    19    12    18   ar
    20    13    15   ar
    21    14    19   ar
    22    15    21   ar
    23    15    24    1
    24    16    22   ar
    25    17    23   ar
    26    18    19   ar
    27    20    22   ar
    28    20    23   ar
    29    20    26    1
    30    21    25    1
    31    27    28   ar
    32     6    29    1
    33    12    30    1
    34    14    31    1
    35    16    32    1
    36    17    33    1
    37    18    34    1
    38    19    35    1
    39    22    36    1
    40    23    37    1
    41    24    38    1
    42    24    39    1
    43    24    40    1
    44    25    41    1
    45    25    42    1
    46    25    43    1
    47    27    44    1
    48    28    45    1
@<TRIPOS>MOLECULE
9843631
 45 48 0 0 0
SMALL
GASTEIGER

@<TRIPOS>ATOM
      1 S          -2.4345   -0.7830   -1.1676 S.O2    1  LIG1        0.0752
      2 O          -1.5972   -3.7810   -1.0996 O.2     1  LIG1       -0.3377
      3 O          -3.4598   -1.1660   -2.1216 O.2     1  LIG1       -0.1499
      4 O          -1.0640   -0.5960   -1.5757 O.2     1  LIG1       -0.1499
      5 O           4.2581    0.8312    0.5323 O.2     1  LIG1       -0.4436
      6 N          -2.5133   -1.8591    0.1406 N.pl3   1  LIG1       -0.1831
      7 N          -1.8574   -5.1342   -1.2224 N.ar    1  LIG1       -0.0810
      8 N           4.2729    2.8494   -0.4813 N.ar    1  LIG1       -0.2175
      9 C          -3.0535    0.6744   -0.3251 C.ar    1  LIG1        0.1162
     10 C          -2.2275    1.6326    0.2898 C.ar    1  LIG1        0.0087
     11 C          -0.7581    1.6594    0.2411 C.ar    1  LIG1       -0.0160
     12 C          -4.4597    0.7864   -0.2588 C.ar    1  LIG1       -0.0345
     13 C          -2.4995   -3.2193   -0.2523 C.ar    1  LIG1        0.2399
     14 C          -2.8700    2.6767    0.9936 C.ar    1  LIG1       -0.0521
     15 C          -3.3949   -4.1786    0.1711 C.ar    1  LIG1        0.0350
     16 C           0.0323    0.7071    0.8996 C.ar    1  LIG1       -0.0533
     17 C          -0.1064    2.6937   -0.4504 C.ar    1  LIG1       -0.0533
     18 C          -5.0586    1.8308    0.4392 C.ar    1  LIG1       -0.0599
     19 C          -4.2619    2.7735    1.0731 C.ar    1  LIG1       -0.0611
     20 C           2.0775    1.7935    0.1310 C.ar    1  LIG1        0.0369
     21 C          -2.9402   -5.3636   -0.4725 C.ar    1  LIG1        0.0854
     22 C           1.4323    0.7656    0.8325 C.ar    1  LIG1       -0.0489
     23 C           1.2888    2.7628   -0.4997 C.ar    1  LIG1       -0.0489
     24 C          -4.5983   -4.0346    1.0217 C.3     1  LIG1       -0.0330
     25 C          -3.5348   -6.7198   -0.4173 C.3     1  LIG1       -0.0188
     26 C           3.5318    1.8846    0.0352 C.ar    1  LIG1        0.2271
     27 C           5.5530    1.1743    0.2885 C.ar    1  LIG1        0.1125
     28 C           5.5588    2.4008   -0.3237 C.ar    1  LIG1        0.0663
     29 H          -3.2171   -1.6010    0.8244 H       1  LIG1        0.1768
     30 H          -5.0999    0.0551   -0.7515 H       1  LIG1        0.0637
     31 H          -2.2707    3.4384    1.4935 H       1  LIG1        0.0624
     32 H          -0.4277   -0.1082    1.4521 H       1  LIG1        0.0624
     33 H          -0.6847    3.4562   -0.9689 H       1  LIG1        0.0624
     34 H          -6.1421    1.9087    0.4856 H       1  LIG1        0.0618
     35 H          -4.7179    3.5938    1.6223 H       1  LIG1        0.0618
     36 H           2.0125   -0.0093    1.3291 H       1  LIG1        0.0625
     37 H           1.7606    3.5755   -1.0498 H       1  LIG1        0.0625
     38 H          -4.6857   -3.0330    1.4526 H       1  LIG1        0.0280
     39 H          -4.5800   -4.7524    1.8470 H       1  LIG1        0.0280
     40 H          -5.4997   -4.2164    0.4264 H       1  LIG1        0.0280
     41 H          -2.8227   -7.4859   -0.7396 H       1  LIG1        0.0294
     42 H          -4.4136   -6.7717   -1.0684 H       1  LIG1        0.0294
     43 H          -3.8494   -6.9643    0.6026 H       1  LIG1        0.0294
     44 H           6.3076    0.4670    0.5963 H       1  LIG1        0.1046
     45 H           6.4083    2.9791   -0.6585 H       1  LIG1        0.0862
@<TRIPOS>BOND
     1     1     3    2
     2     1     4    2
     3     1     6    1
     4     1     9    1
     5     2     7   ar
     6     2    13   ar
     7     5    26   ar
     8     5    27   ar
     9     6    13    1
    10     7    21   ar
    11     8    26   ar
    12     8    28   ar
    13     9    10   ar
    14     9    12   ar
    15    10    11    1
    16    10    14   ar
    17    11    16   ar
    18    11    17   ar
    19    12    18   ar
    20    13    15   ar
    21    14    19   ar
    22    15    21   ar
    23    15    24    1
    24    16    22   ar
    25    17    23   ar
    26    18    19   ar
    27    20    22   ar
    28    20    23   ar
    29    20    26    1
    30    21    25    1
    31    27    28   ar
    32     6    29    1
    33    12    30    1
    34    14    31    1
    35    16    32    1
    36    17    33    1
    37    18    34    1
    38    19    35    1
    39    22    36    1
    40    23    37    1
    41    24    38    1
    42    24    39    1
    43    24    40    1
    44    25    41    1
    45    25    42    1
    46    25    43    1
    47    27    44    1
    48    28    45    1
@<TRIPOS>MOLECULE
9843631
 45 48 0 0 0
SMALL
GASTEIGER

@<TRIPOS>ATOM
      1 S          -2.4787   -0.9650   -0.8862 S.O2    1  LIG1        0.0752
      2 O          -3.0412    1.4523   -3.5241 O.2     1  LIG1       -0.3377
      3 O          -1.1910   -1.2167   -0.2737 O.2     1  LIG1       -0.1499
      4 O          -3.5137   -1.9778   -0.8308 O.2     1  LIG1       -0.1499
      5 O           4.0781    2.1733    1.0504 O.2     1  LIG1       -0.4436
      6 N          -2.1858   -0.5987   -2.5207 N.pl3   1  LIG1       -0.1831
      7 N          -4.2207    1.9452   -4.0433 N.ar    1  LIG1       -0.0810
      8 N           4.1902    1.8439   -1.1811 N.ar    1  LIG1       -0.2175
      9 C          -3.1544    0.5445   -0.1977 C.ar    1  LIG1        0.1162
     10 C          -2.3499    1.6447    0.1672 C.ar    1  LIG1        0.0087
     11 C          -0.8837    1.6972    0.0718 C.ar    1  LIG1       -0.0160
     12 C          -4.5474    0.5803    0.0040 C.ar    1  LIG1       -0.0345
     13 C          -3.2080    0.1544   -3.1545 C.ar    1  LIG1        0.2399
     14 C          -3.0024    2.7774    0.6981 C.ar    1  LIG1       -0.0521
     15 C          -4.4653   -0.2673   -3.5314 C.ar    1  LIG1        0.0350
     16 C          -0.2257    1.9160   -1.1462 C.ar    1  LIG1       -0.0533
     17 C          -0.1046    1.5924    1.2348 C.ar    1  LIG1       -0.0533
     18 C          -5.1593    1.7136    0.5338 C.ar    1  LIG1       -0.0599
     19 C          -4.3869    2.8152    0.8763 C.ar    1  LIG1       -0.0611
     20 C           1.9486    1.8625   -0.0400 C.ar    1  LIG1        0.0369
     21 C          -5.0736    0.9152   -4.0422 C.ar    1  LIG1        0.0854
     22 C           1.1739    1.9738   -1.2033 C.ar    1  LIG1       -0.0489
     23 C           1.2908    1.6809    1.1819 C.ar    1  LIG1       -0.0489
     24 C          -5.0658   -1.6197   -3.4577 C.3     1  LIG1       -0.0330
     25 C          -6.4545    1.0928   -4.5517 C.3     1  LIG1       -0.0188
     26 C           3.4045    1.9412   -0.1237 C.ar    1  LIG1        0.2271
     27 C           5.3880    2.2138    0.6821 C.ar    1  LIG1        0.1125
     28 C           5.4540    2.0011   -0.6709 C.ar    1  LIG1        0.0663
     29 H          -1.2564   -0.1844   -2.5873 H       1  LIG1        0.1768
     30 H          -5.1697   -0.2747   -0.2541 H       1  LIG1        0.0637
     31 H          -2.4185    3.6522    0.9858 H       1  LIG1        0.0624
     32 H          -0.7919    2.0659   -2.0620 H       1  LIG1        0.0624
     33 H          -0.5838    1.4403    2.2006 H       1  LIG1        0.0624
     34 H          -6.2365    1.7343    0.6798 H       1  LIG1        0.0618
     35 H          -4.8564    3.7040    1.2908 H       1  LIG1        0.0618
     36 H           1.6626    2.1262   -2.1645 H       1  LIG1        0.0625
     37 H           1.8567    1.5954    2.1075 H       1  LIG1        0.0625
     38 H          -4.2999   -2.3978   -3.3877 H       1  LIG1        0.0280
     39 H          -5.6527   -1.8275   -4.3592 H       1  LIG1        0.0280
     40 H          -5.7315   -1.6996   -2.5935 H       1  LIG1        0.0280
     41 H          -6.7433    2.1491   -4.5676 H       1  LIG1        0.0294
     42 H          -7.1721    0.5636   -3.9156 H       1  LIG1        0.0294
     43 H          -6.5392    0.6985   -5.5688 H       1  LIG1        0.0294
     44 H           6.1068    2.3926    1.4678 H       1  LIG1        0.1046
     45 H           6.3324    1.9561   -1.2986 H       1  LIG1        0.0862
@<TRIPOS>BOND
     1     1     3    2
     2     1     4    2
     3     1     6    1
     4     1     9    1
     5     2     7   ar
     6     2    13   ar
     7     5    26   ar
     8     5    27   ar
     9     6    13    1
    10     7    21   ar
    11     8    26   ar
    12     8    28   ar
    13     9    10   ar
    14     9    12   ar
    15    10    11    1
    16    10    14   ar
    17    11    16   ar
    18    11    17   ar
    19    12    18   ar
    20    13    15   ar
    21    14    19   ar
    22    15    21   ar
    23    15    24    1
    24    16    22   ar
    25    17    23   ar
    26    18    19   ar
    27    20    22   ar
    28    20    23   ar
    29    20    26    1
    30    21    25    1
    31    27    28   ar
    32     6    29    1
    33    12    30    1
    34    14    31    1
    35    16    32    1
    36    17    33    1
    37    18    34    1
    38    19    35    1
    39    22    36    1
    40    23    37    1
    41    24    38    1
    42    24    39    1
    43    24    40    1
    44    25    41    1
    45    25    42    1
    46    25    43    1
    47    27    44    1
    48    28    45    1
@<TRIPOS>MOLECULE
9843631
 45 48 0 0 0
SMALL
GASTEIGER

@<TRIPOS>ATOM
      1 S          -2.4473   -0.9679   -0.8880 S.O2    1  LIG1        0.0752
      2 O          -3.0302    1.4511   -3.5216 O.2     1  LIG1       -0.3377
      3 O          -1.1551   -1.2197   -0.2892 O.2     1  LIG1       -0.1499
      4 O          -3.4813   -1.9818   -0.8278 O.2     1  LIG1       -0.1499
      5 O           4.0378    1.6536   -1.3278 O.2     1  LIG1       -0.4436
      6 N          -2.1661   -0.5999   -2.5246 N.pl3   1  LIG1       -0.1831
      7 N          -4.2130    1.9421   -4.0354 N.ar    1  LIG1       -0.0810
      8 N           4.2915    2.1229    0.8667 N.ar    1  LIG1       -0.2175
      9 C          -3.1202    0.5407   -0.1944 C.ar    1  LIG1        0.1162
     10 C          -2.3159    1.6433    0.1629 C.ar    1  LIG1        0.0087
     11 C          -0.8505    1.6985    0.0552 C.ar    1  LIG1       -0.0160
     12 C          -4.5123    0.5722    0.0197 C.ar    1  LIG1       -0.0345
     13 C          -3.1927    0.1528   -3.1515 C.ar    1  LIG1        0.2399
     14 C          -2.9673    2.7734    0.7006 C.ar    1  LIG1       -0.0521
     15 C          -4.4515   -0.2711   -3.5228 C.ar    1  LIG1        0.0350
     16 C          -0.2010    1.9113   -1.1668 C.ar    1  LIG1       -0.0533
     17 C          -0.0638    1.6006    1.2146 C.ar    1  LIG1       -0.0533
     18 C          -5.1229    1.7024    0.5558 C.ar    1  LIG1       -0.0599
     19 C          -4.3503    2.8064    0.8920 C.ar    1  LIG1       -0.0611
     20 C           1.9807    1.8429   -0.0796 C.ar    1  LIG1        0.0369
     21 C          -5.0644    0.9105   -4.0297 C.ar    1  LIG1        0.0854
     22 C           1.1993    1.9594   -1.2382 C.ar    1  LIG1       -0.0489
     23 C           1.3309    1.6821    1.1484 C.ar    1  LIG1       -0.0489
     24 C          -5.0486   -1.6244   -3.4468 C.3     1  LIG1       -0.0330
     25 C          -6.4484    1.0855   -4.5329 C.3     1  LIG1       -0.0188
     26 C           3.4392    1.8990   -0.1177 C.ar    1  LIG1        0.2271
     27 C           5.3715    1.7265   -1.0601 C.ar    1  LIG1        0.1125
     28 C           5.5218    2.0237    0.2698 C.ar    1  LIG1        0.0663
     29 H          -1.2381   -0.1841   -2.5948 H       1  LIG1        0.1768
     30 H          -5.1346   -0.2852   -0.2332 H       1  LIG1        0.0637
     31 H          -2.3836    3.6499    0.9849 H       1  LIG1        0.0624
     32 H          -0.7751    2.0630   -2.0781 H       1  LIG1        0.0624
     33 H          -0.5344    1.4594    2.1858 H       1  LIG1        0.0624
     34 H          -6.1987    1.7205    0.7129 H       1  LIG1        0.0618
     35 H          -4.8187    3.6930    1.3122 H       1  LIG1        0.0618
     36 H           1.6743    2.1097   -2.2054 H       1  LIG1        0.0625
     37 H           1.9114    1.6066    2.0671 H       1  LIG1        0.0625
     38 H          -4.2809   -2.4008   -3.3750 H       1  LIG1        0.0280
     39 H          -5.6346   -1.8353   -4.3482 H       1  LIG1        0.0280
     40 H          -5.7142   -1.7044   -2.5825 H       1  LIG1        0.0280
     41 H          -6.7386    2.1414   -4.5478 H       1  LIG1        0.0294
     42 H          -7.1614    0.5553   -3.8933 H       1  LIG1        0.0294
     43 H          -6.5365    0.6908   -5.5495 H       1  LIG1        0.0294
     44 H           6.0424    1.5488   -1.8868 H       1  LIG1        0.1046
     45 H           6.4378    2.1641    0.8261 H       1  LIG1        0.0862
@<TRIPOS>BOND
     1     1     3    2
     2     1     4    2
     3     1     6    1
     4     1     9    1
     5     2     7   ar
     6     2    13   ar
     7     5    26   ar
     8     5    27   ar
     9     6    13    1
    10     7    21   ar
    11     8    26   ar
    12     8    28   ar
    13     9    10   ar
    14     9    12   ar
    15    10    11    1
    16    10    14   ar
    17    11    16   ar
    18    11    17   ar
    19    12    18   ar
    20    13    15   ar
    21    14    19   ar
    22    15    21   ar
    23    15    24    1
    24    16    22   ar
    25    17    23   ar
    26    18    19   ar
    27    20    22   ar
    28    20    23   ar
    29    20    26    1
    30    21    25    1
    31    27    28   ar
    32     6    29    1
    33    12    30    1
    34    14    31    1
    35    16    32    1
    36    17    33    1
    37    18    34    1
    38    19    35    1
    39    22    36    1
    40    23    37    1
    41    24    38    1
    42    24    39    1
    43    24    40    1
    44    25    41    1
    45    25    42    1
    46    25    43    1
    47    27    44    1
    48    28    45    1
@<TRIPOS>MOLECULE
9843631
 45 48 0 0 0
SMALL
GASTEIGER

@<TRIPOS>ATOM
      1 S          -2.3770   -1.0298   -0.9170 S.O2    1  LIG1        0.0752
      2 O           0.0498   -2.9536    1.0328 O.2     1  LIG1       -0.3377
      3 O          -3.4451   -1.6409   -1.6806 O.2     1  LIG1       -0.1499
      4 O          -1.1218   -0.6930   -1.5496 O.2     1  LIG1       -0.1499
      5 O           4.0015    3.1275   -0.5674 O.2     1  LIG1       -0.4436
      6 N          -2.1052   -1.9875    0.4598 N.pl3   1  LIG1       -0.1831
      7 N           0.8448   -4.0250    0.6857 N.ar    1  LIG1       -0.0810
      8 N           4.4313    1.1250    0.3834 N.ar    1  LIG1       -0.2175
      9 C          -3.0454    0.4356   -0.1280 C.ar    1  LIG1        0.1162
     10 C          -2.2446    1.4883    0.3622 C.ar    1  LIG1        0.0087
     11 C          -0.7775    1.5812    0.2603 C.ar    1  LIG1       -0.0160
     12 C          -4.4494    0.4846   -0.0109 C.ar    1  LIG1       -0.0345
     13 C          -1.0892   -2.9639    0.2901 C.ar    1  LIG1        0.2399
     14 C          -2.9129    2.5639    0.9898 C.ar    1  LIG1       -0.0521
     15 C          -1.1056   -4.0883   -0.5062 C.ar    1  LIG1        0.0350
     16 C           0.0813    0.7477    0.9892 C.ar    1  LIG1       -0.0533
     17 C          -0.1951    2.5774   -0.5424 C.ar    1  LIG1       -0.0533
     18 C          -5.0734    1.5657    0.6057 C.ar    1  LIG1       -0.0599
     19 C          -4.3041    2.6037    1.1121 C.ar    1  LIG1       -0.0611
     20 C           2.0479    1.8612    0.0703 C.ar    1  LIG1        0.0369
     21 C           0.1544   -4.6991   -0.2405 C.ar    1  LIG1        0.0854
     22 C           1.4729    0.8695    0.8749 C.ar    1  LIG1       -0.0489
     23 C           1.1951    2.7222   -0.6297 C.ar    1  LIG1       -0.0489
     24 C          -2.1755   -4.5997   -1.3923 C.3     1  LIG1       -0.0330
     25 C           0.7137   -5.9447   -0.8163 C.3     1  LIG1       -0.0188
     26 C           3.5009    1.9728   -0.0173 C.ar    1  LIG1        0.2271
     27 C           5.3524    2.9671   -0.5081 C.ar    1  LIG1        0.1125
     28 C           5.6097    1.7453    0.0576 C.ar    1  LIG1        0.0663
     29 H          -1.9271   -1.4086    1.2768 H       1  LIG1        0.1768
     30 H          -5.0689   -0.3222   -0.4009 H       1  LIG1        0.0637
     31 H          -2.3365    3.3975    1.3926 H       1  LIG1        0.0624
     32 H          -0.3060   -0.0090    1.6625 H       1  LIG1        0.0624
     33 H          -0.8261    3.2573   -1.1131 H       1  LIG1        0.0624
     34 H          -6.1572    1.5952    0.6893 H       1  LIG1        0.0618
     35 H          -4.7829    3.4513    1.5970 H       1  LIG1        0.0618
     36 H           2.1130    0.1819    1.4273 H       1  LIG1        0.0625
     37 H           1.6021    3.5080   -1.2626 H       1  LIG1        0.0625
     38 H          -3.1546   -4.1960   -1.1197 H       1  LIG1        0.0280
     39 H          -2.2501   -5.6901   -1.3127 H       1  LIG1        0.0280
     40 H          -1.9667   -4.3461   -2.4356 H       1  LIG1        0.0280
     41 H           1.7988   -5.9977   -0.6787 H       1  LIG1        0.0294
     42 H           0.5104   -6.0012   -1.8903 H       1  LIG1        0.0294
     43 H           0.2650   -6.8185   -0.3333 H       1  LIG1        0.0294
     44 H           5.9538    3.7763   -0.8941 H       1  LIG1        0.1046
     45 H           6.5680    1.2841    0.2503 H       1  LIG1        0.0862
@<TRIPOS>BOND
     1     1     3    2
     2     1     4    2
     3     1     6    1
     4     1     9    1
     5     2     7   ar
     6     2    13   ar
     7     5    26   ar
     8     5    27   ar
     9     6    13    1
    10     7    21   ar
    11     8    26   ar
    12     8    28   ar
    13     9    10   ar
    14     9    12   ar
    15    10    11    1
    16    10    14   ar
    17    11    16   ar
    18    11    17   ar
    19    12    18   ar
    20    13    15   ar
    21    14    19   ar
    22    15    21   ar
    23    15    24    1
    24    16    22   ar
    25    17    23   ar
    26    18    19   ar
    27    20    22   ar
    28    20    23   ar
    29    20    26    1
    30    21    25    1
    31    27    28   ar
    32     6    29    1
    33    12    30    1
    34    14    31    1
    35    16    32    1
    36    17    33    1
    37    18    34    1
    38    19    35    1
    39    22    36    1
    40    23    37    1
    41    24    38    1
    42    24    39    1
    43    24    40    1
    44    25    41    1
    45    25    42    1
    46    25    43    1
    47    27    44    1
    48    28    45    1
@<TRIPOS>MOLECULE
9843631
 45 48 0 0 0
SMALL
GASTEIGER

@<TRIPOS>ATOM
      1 S          -2.4047   -0.9968   -0.9618 S.O2    1  LIG1        0.0752
      2 O          -3.8166   -3.6016    1.1789 O.2     1  LIG1       -0.3377
      3 O          -3.4762   -1.5529   -1.7677 O.2     1  LIG1       -0.1499
      4 O          -1.1085   -0.7490   -1.5469 O.2     1  LIG1       -0.1499
      5 O           4.0736    3.1659   -0.2022 O.2     1  LIG1       -0.4436
      6 N          -2.2099   -1.9323    0.4531 N.pl3   1  LIG1       -0.1831
      7 N          -4.1683   -4.9072    0.9105 N.ar    1  LIG1       -0.0810
      8 N           4.4544    0.9773    0.2048 N.ar    1  LIG1       -0.2175
      9 C          -3.0368    0.5039   -0.2110 C.ar    1  LIG1        0.1162
     10 C          -2.2164    1.5225    0.3161 C.ar    1  LIG1        0.0087
     11 C          -0.7434    1.5890    0.2425 C.ar    1  LIG1       -0.0160
     12 C          -4.4426    0.5890   -0.1205 C.ar    1  LIG1       -0.0345
     13 C          -2.7859   -3.2277    0.3757 C.ar    1  LIG1        0.2399
     14 C          -2.8743    2.5950    0.9639 C.ar    1  LIG1       -0.0521
     15 C          -2.3870   -4.3001   -0.3901 C.ar    1  LIG1        0.0350
     16 C          -0.1280    2.6788   -0.4010 C.ar    1  LIG1       -0.0533
     17 C           0.0919    0.6368    0.8426 C.ar    1  LIG1       -0.0533
     18 C          -5.0527    1.6670    0.5129 C.ar    1  LIG1       -0.0599
     19 C          -4.2664    2.6679    1.0643 C.ar    1  LIG1       -0.0611
     20 C           2.0912    1.8309    0.1134 C.ar    1  LIG1        0.0369
     21 C          -3.3109   -5.3239   -0.0283 C.ar    1  LIG1        0.0854
     22 C           1.2648    2.8054   -0.4555 C.ar    1  LIG1       -0.0489
     23 C           1.4880    0.7432    0.7562 C.ar    1  LIG1       -0.0489
     24 C          -1.2536   -4.4118   -1.3355 C.3     1  LIG1       -0.0330
     25 C          -3.3848   -6.7164   -0.5285 C.3     1  LIG1       -0.0188
     26 C           3.5457    1.9218    0.0423 C.ar    1  LIG1        0.2271
     27 C           5.4203    2.9636   -0.1989 C.ar    1  LIG1        0.1125
     28 C           5.6472    1.6313    0.0312 C.ar    1  LIG1        0.0663
     29 H          -2.5962   -1.4381    1.2575 H       1  LIG1        0.1768
     30 H          -5.0772   -0.1934   -0.5373 H       1  LIG1        0.0637
     31 H          -2.2877    3.4005    1.4075 H       1  LIG1        0.0624
     32 H          -0.7367    3.4493   -0.8727 H       1  LIG1        0.0624
     33 H          -0.3210   -0.2141    1.3754 H       1  LIG1        0.0624
     34 H          -6.1362    1.7208    0.5794 H       1  LIG1        0.0618
     35 H          -4.7312    3.5115    1.5692 H       1  LIG1        0.0618
     36 H           1.6953    3.6662   -0.9634 H       1  LIG1        0.0625
     37 H           2.1077   -0.0348    1.2001 H       1  LIG1        0.0625
     38 H          -0.6122   -3.5265   -1.3153 H       1  LIG1        0.0280
     39 H          -1.6178   -4.5500   -2.3576 H       1  LIG1        0.0280
     40 H          -0.6284   -5.2726   -1.0742 H       1  LIG1        0.0280
     41 H          -4.3346   -7.1902   -0.2581 H       1  LIG1        0.0294
     42 H          -2.5732   -7.3143   -0.1014 H       1  LIG1        0.0294
     43 H          -3.2971   -6.7417   -1.6190 H       1  LIG1        0.0294
     44 H           6.0404    3.8301   -0.3703 H       1  LIG1        0.1046
     45 H           6.5946    1.1132    0.0859 H       1  LIG1        0.0862
@<TRIPOS>BOND
     1     1     3    2
     2     1     4    2
     3     1     6    1
     4     1     9    1
     5     2     7   ar
     6     2    13   ar
     7     5    26   ar
     8     5    27   ar
     9     6    13    1
    10     7    21   ar
    11     8    26   ar
    12     8    28   ar
    13     9    10   ar
    14     9    12   ar
    15    10    11    1
    16    10    14   ar
    17    11    16   ar
    18    11    17   ar
    19    12    18   ar
    20    13    15   ar
    21    14    19   ar
    22    15    21   ar
    23    15    24    1
    24    16    22   ar
    25    17    23   ar
    26    18    19   ar
    27    20    22   ar
    28    20    23   ar
    29    20    26    1
    30    21    25    1
    31    27    28   ar
    32     6    29    1
    33    12    30    1
    34    14    31    1
    35    16    32    1
    36    17    33    1
    37    18    34    1
    38    19    35    1
    39    22    36    1
    40    23    37    1
    41    24    38    1
    42    24    39    1
    43    24    40    1
    44    25    41    1
    45    25    42    1
    46    25    43    1
    47    27    44    1
    48    28    45    1
@<TRIPOS>MOLECULE
9843631
 45 48 0 0 0
SMALL
GASTEIGER

@<TRIPOS>ATOM
      1 S          -2.3707   -1.0013   -0.9865 S.O2    1  LIG1        0.0752
      2 O           0.1064   -2.8007    0.8503 O.2     1  LIG1       -0.3377
      3 O          -3.4276   -1.5928   -1.7876 O.2     1  LIG1       -0.1499
      4 O          -1.1012   -0.6656   -1.5815 O.2     1  LIG1       -0.1499
      5 O           4.2597    0.9103    0.4819 O.2     1  LIG1       -0.4436
      6 N          -2.1482   -1.9967    0.3798 N.pl3   1  LIG1       -0.1831
      7 N           0.9225   -3.8658    0.5323 N.ar    1  LIG1       -0.0810
      8 N           4.2258    2.9258   -0.5351 N.ar    1  LIG1       -0.2175
      9 C          -3.0457    0.4556   -0.1837 C.ar    1  LIG1        0.1162
     10 C          -2.2514    1.5012    0.3396 C.ar    1  LIG1        0.0087
     11 C          -0.7780    1.5964    0.2779 C.ar    1  LIG1       -0.0160
     12 C          -4.4519    0.5074   -0.0973 C.ar    1  LIG1       -0.0345
     13 C          -1.0861   -2.9273    0.2102 C.ar    1  LIG1        0.2399
     14 C          -2.9361    2.5683    0.9664 C.ar    1  LIG1       -0.0521
     15 C          -1.1119   -4.1175   -0.4821 C.ar    1  LIG1        0.0350
     16 C           0.0633    0.6864    0.9300 C.ar    1  LIG1       -0.0533
     17 C          -0.1690    2.6636   -0.4053 C.ar    1  LIG1       -0.0533
     18 C          -5.0889    1.5802    0.5200 C.ar    1  LIG1       -0.0599
     19 C          -4.3300    2.6095    1.0572 C.ar    1  LIG1       -0.0611
     20 C           2.0580    1.8340    0.1259 C.ar    1  LIG1        0.0369
     21 C           0.1912   -4.6522   -0.2655 C.ar    1  LIG1        0.0854
     22 C           1.4582    0.7840    0.8310 C.ar    1  LIG1       -0.0489
     23 C           1.2242    2.7871   -0.4698 C.ar    1  LIG1       -0.0489
     24 C          -2.2249   -4.7504   -1.2245 C.3     1  LIG1       -0.0330
     25 C           0.7559   -5.9287   -0.7636 C.3     1  LIG1       -0.0188
     26 C           3.5085    1.9532   -0.0004 C.ar    1  LIG1        0.2271
     27 C           5.5441    1.2673    0.2085 C.ar    1  LIG1        0.1125
     28 C           5.5210    2.4925   -0.4057 C.ar    1  LIG1        0.0663
     29 H          -1.9934   -1.4177    1.2023 H       1  LIG1        0.1768
     30 H          -5.0645   -0.2924   -0.5119 H       1  LIG1        0.0637
     31 H          -2.3703    3.3961    1.3961 H       1  LIG1        0.0624
     32 H          -0.3391   -0.1243    1.5264 H       1  LIG1        0.0624
     33 H          -0.7788    3.4162   -0.9011 H       1  LIG1        0.0624
     34 H          -6.1737    1.6107    0.5788 H       1  LIG1        0.0618
     35 H          -4.8178    3.4520    1.5417 H       1  LIG1        0.0618
     36 H           2.0701    0.0222    1.3106 H       1  LIG1        0.0625
     37 H           1.6597    3.6292   -1.0063 H       1  LIG1        0.0625
     38 H          -3.1584   -4.1900   -1.1258 H       1  LIG1        0.0280
     39 H          -2.4105   -5.7576   -0.8343 H       1  LIG1        0.0280
     40 H          -1.9826   -4.8351   -2.2880 H       1  LIG1        0.0280
     41 H           1.8378   -5.9807   -0.6007 H       1  LIG1        0.0294
     42 H           0.5732   -6.0394   -1.8369 H       1  LIG1        0.0294
     43 H           0.2939   -6.7742   -0.2445 H       1  LIG1        0.0294
     44 H           6.3132    0.5683    0.5011 H       1  LIG1        0.1046
     45 H           6.3566    3.0786   -0.7615 H       1  LIG1        0.0862
@<TRIPOS>BOND
     1     1     3    2
     2     1     4    2
     3     1     6    1
     4     1     9    1
     5     2     7   ar
     6     2    13   ar
     7     5    26   ar
     8     5    27   ar
     9     6    13    1
    10     7    21   ar
    11     8    26   ar
    12     8    28   ar
    13     9    10   ar
    14     9    12   ar
    15    10    11    1
    16    10    14   ar
    17    11    16   ar
    18    11    17   ar
    19    12    18   ar
    20    13    15   ar
    21    14    19   ar
    22    15    21   ar
    23    15    24    1
    24    16    22   ar
    25    17    23   ar
    26    18    19   ar
    27    20    22   ar
    28    20    23   ar
    29    20    26    1
    30    21    25    1
    31    27    28   ar
    32     6    29    1
    33    12    30    1
    34    14    31    1
    35    16    32    1
    36    17    33    1
    37    18    34    1
    38    19    35    1
    39    22    36    1
    40    23    37    1
    41    24    38    1
    42    24    39    1
    43    24    40    1
    44    25    41    1
    45    25    42    1
    46    25    43    1
    47    27    44    1
    48    28    45    1
@<TRIPOS>MOLECULE
9843631
 45 48 0 0 0
SMALL
GASTEIGER

@<TRIPOS>ATOM
      1 S          -2.4487   -0.7743   -1.1750 S.O2    1  LIG1        0.0752
      2 O          -1.6003   -3.7731   -1.1182 O.2     1  LIG1       -0.3377
      3 O          -3.4871   -1.1549   -2.1126 O.2     1  LIG1       -0.1499
      4 O          -1.0852   -0.5855   -1.6056 O.2     1  LIG1       -0.1499
      5 O           4.2562    0.7430    0.2963 O.2     1  LIG1       -0.4436
      6 N          -2.5093   -1.8537    0.1305 N.pl3   1  LIG1       -0.1831
      7 N          -1.8595   -5.1267   -1.2405 N.ar    1  LIG1       -0.0810
      8 N           4.2851    2.8913   -0.4004 N.ar    1  LIG1       -0.2175
      9 C          -3.0539    0.6813   -0.3195 C.ar    1  LIG1        0.1162
     10 C          -2.2195    1.6303    0.2995 C.ar    1  LIG1        0.0087
     11 C          -0.7493    1.6556    0.2419 C.ar    1  LIG1       -0.0160
     12 C          -4.4596    0.8004   -0.2467 C.ar    1  LIG1       -0.0345
     13 C          -2.4979   -3.2133   -0.2656 C.ar    1  LIG1        0.2399
     14 C          -2.8556    2.6706    1.0151 C.ar    1  LIG1       -0.0521
     15 C          -3.3911   -4.1733    0.1613 C.ar    1  LIG1        0.0350
     16 C           0.0469    0.6750    0.8508 C.ar    1  LIG1       -0.0533
     17 C          -0.1004    2.7193   -0.4074 C.ar    1  LIG1       -0.0533
     18 C          -5.0505    1.8424    0.4612 C.ar    1  LIG1       -0.0599
     19 C          -4.2467    2.7747    1.1004 C.ar    1  LIG1       -0.0611
     20 C           2.0867    1.7867    0.1049 C.ar    1  LIG1        0.0369
     21 C          -2.9380   -5.3576   -0.4846 C.ar    1  LIG1        0.0854
     22 C           1.4458    0.7307    0.7671 C.ar    1  LIG1       -0.0489
     23 C           1.2941    2.7889   -0.4673 C.ar    1  LIG1       -0.0489
     24 C          -4.5908   -4.0306    1.0179 C.3     1  LIG1       -0.0330
     25 C          -3.5301   -6.7148   -0.4259 C.3     1  LIG1       -0.0188
     26 C           3.5393    1.8725   -0.0099 C.ar    1  LIG1        0.2271
     27 C           5.5501    1.0966    0.0611 C.ar    1  LIG1        0.1125
     28 C           5.5651    2.4029   -0.3536 C.ar    1  LIG1        0.0663
     29 H          -3.2087   -1.5990    0.8205 H       1  LIG1        0.1768
     30 H          -5.1058    0.0765   -0.7423 H       1  LIG1        0.0637
     31 H          -2.2512    3.4249    1.5201 H       1  LIG1        0.0624
     32 H          -0.4083   -0.1625    1.3739 H       1  LIG1        0.0624
     33 H          -0.6815    3.5065   -0.8846 H       1  LIG1        0.0624
     34 H          -6.1335    1.9256    0.5114 H       1  LIG1        0.0618
     35 H          -4.6959    3.5931    1.6578 H       1  LIG1        0.0618
     36 H           2.0301   -0.0681    1.2196 H       1  LIG1        0.0625
     37 H           1.7628    3.6256   -0.9834 H       1  LIG1        0.0625
     38 H          -4.6806   -3.0279    1.4446 H       1  LIG1        0.0280
     39 H          -4.5648   -4.7451    1.8457 H       1  LIG1        0.0280
     40 H          -5.4941   -4.2191    0.4276 H       1  LIG1        0.0280
     41 H          -2.8159   -7.4800   -0.7456 H       1  LIG1        0.0294
     42 H          -4.4081   -6.7704   -1.0773 H       1  LIG1        0.0294
     43 H          -3.8446   -6.9572    0.5944 H       1  LIG1        0.0294
     44 H           6.2975    0.3352    0.2279 H       1  LIG1        0.1046
     45 H           6.4167    3.0113   -0.6238 H       1  LIG1        0.0862
@<TRIPOS>BOND
     1     1     3    2
     2     1     4    2
     3     1     6    1
     4     1     9    1
     5     2     7   ar
     6     2    13   ar
     7     5    26   ar
     8     5    27   ar
     9     6    13    1
    10     7    21   ar
    11     8    26   ar
    12     8    28   ar
    13     9    10   ar
    14     9    12   ar
    15    10    11    1
    16    10    14   ar
    17    11    16   ar
    18    11    17   ar
    19    12    18   ar
    20    13    15   ar
    21    14    19   ar
    22    15    21   ar
    23    15    24    1
    24    16    22   ar
    25    17    23   ar
    26    18    19   ar
    27    20    22   ar
    28    20    23   ar
    29    20    26    1
    30    21    25    1
    31    27    28   ar
    32     6    29    1
    33    12    30    1
    34    14    31    1
    35    16    32    1
    36    17    33    1
    37    18    34    1
    38    19    35    1
    39    22    36    1
    40    23    37    1
    41    24    38    1
    42    24    39    1
    43    24    40    1
    44    25    41    1
    45    25    42    1
    46    25    43    1
    47    27    44    1
    48    28    45    1
@<TRIPOS>MOLECULE
9843631
 45 48 0 0 0
SMALL
GASTEIGER

@<TRIPOS>ATOM
      1 S          -2.4010   -0.9906   -0.9813 S.O2    1  LIG1        0.0752
      2 O          -3.2086   -4.2156    0.4741 O.2     1  LIG1       -0.3377
      3 O          -3.4637   -1.5256   -1.8073 O.2     1  LIG1       -0.1499
      4 O          -1.0935   -0.7422   -1.5339 O.2     1  LIG1       -0.1499
      5 O           4.2777    0.8293    0.5483 O.2     1  LIG1       -0.4436
      6 N          -2.2736   -1.9720    0.4085 N.pl3   1  LIG1       -0.1831
      7 N          -2.8903   -5.4983    0.0829 N.ar    1  LIG1       -0.0810
      8 N           4.2531    2.8243   -0.5095 N.ar    1  LIG1       -0.2175
      9 C          -3.0435    0.4959   -0.2113 C.ar    1  LIG1        0.1162
     10 C          -2.2254    1.5093    0.3239 C.ar    1  LIG1        0.0087
     11 C          -0.7557    1.5561    0.2586 C.ar    1  LIG1       -0.0160
     12 C          -4.4490    0.5931   -0.1407 C.ar    1  LIG1       -0.0345
     13 C          -2.2175   -3.3605    0.1044 C.ar    1  LIG1        0.2399
     14 C          -2.8774    2.5914    0.9587 C.ar    1  LIG1       -0.0521
     15 C          -1.1908   -4.0731   -0.4755 C.ar    1  LIG1        0.0350
     16 C           0.0573    0.6434    0.9456 C.ar    1  LIG1       -0.0533
     17 C          -0.1247    2.5772   -0.4721 C.ar    1  LIG1       -0.0533
     18 C          -5.0568    1.6789    0.4841 C.ar    1  LIG1       -0.0599
     19 C          -4.2694    2.6756    1.0420 C.ar    1  LIG1       -0.0611
     20 C           2.0787    1.7415    0.1312 C.ar    1  LIG1        0.0369
     21 C          -1.6840   -5.4109   -0.4881 C.ar    1  LIG1        0.0854
     22 C           1.4557    0.7263    0.8704 C.ar    1  LIG1       -0.0489
     23 C           1.2692    2.6727   -0.5294 C.ar    1  LIG1       -0.0489
     24 C           0.1335   -3.6045   -0.9421 C.3     1  LIG1       -0.0330
     25 C          -1.0205   -6.6325   -1.0011 C.3     1  LIG1       -0.0188
     26 C           3.5311    1.8581    0.0310 C.ar    1  LIG1        0.2271
     27 C           5.5656    1.1930    0.2977 C.ar    1  LIG1        0.1125
     28 C           5.5478    2.4066   -0.3411 C.ar    1  LIG1        0.0663
     29 H          -3.0727   -1.7939    1.0164 H       1  LIG1        0.1768
     30 H          -5.0853   -0.1790   -0.5727 H       1  LIG1        0.0637
     31 H          -2.2860    3.3944    1.4003 H       1  LIG1        0.0624
     32 H          -0.3850   -0.1527    1.5393 H       1  LIG1        0.0624
     33 H          -0.7192    3.3133   -1.0110 H       1  LIG1        0.0624
     34 H          -6.1411    1.7451    0.5336 H       1  LIG1        0.0618
     35 H          -4.7334    3.5266    1.5355 H       1  LIG1        0.0618
     36 H           2.0525   -0.0148    1.3976 H       1  LIG1        0.0625
     37 H           1.7226    3.4776   -1.1053 H       1  LIG1        0.0625
     38 H           0.4154   -2.6570   -0.4741 H       1  LIG1        0.0280
     39 H           0.1346   -3.4761   -2.0285 H       1  LIG1        0.0280
     40 H           0.9102   -4.3320   -0.6825 H       1  LIG1        0.0280
     41 H          -1.7198   -7.4729   -1.0662 H       1  LIG1        0.0294
     42 H          -0.2003   -6.9242   -0.3377 H       1  LIG1        0.0294
     43 H          -0.6120   -6.4588   -2.0016 H       1  LIG1        0.0294
     44 H           6.3345    0.5085    0.6212 H       1  LIG1        0.1046
     45 H           6.3858    2.9943   -0.6875 H       1  LIG1        0.0862
@<TRIPOS>BOND
     1     1     3    2
     2     1     4    2
     3     1     6    1
     4     1     9    1
     5     2     7   ar
     6     2    13   ar
     7     5    26   ar
     8     5    27   ar
     9     6    13    1
    10     7    21   ar
    11     8    26   ar
    12     8    28   ar
    13     9    10   ar
    14     9    12   ar
    15    10    11    1
    16    10    14   ar
    17    11    16   ar
    18    11    17   ar
    19    12    18   ar
    20    13    15   ar
    21    14    19   ar
    22    15    21   ar
    23    15    24    1
    24    16    22   ar
    25    17    23   ar
    26    18    19   ar
    27    20    22   ar
    28    20    23   ar
    29    20    26    1
    30    21    25    1
    31    27    28   ar
    32     6    29    1
    33    12    30    1
    34    14    31    1
    35    16    32    1
    36    17    33    1
    37    18    34    1
    38    19    35    1
    39    22    36    1
    40    23    37    1
    41    24    38    1
    42    24    39    1
    43    24    40    1
    44    25    41    1
    45    25    42    1
    46    25    43    1
    47    27    44    1
    48    28    45    1
@<TRIPOS>MOLECULE
9843631
 45 48 0 0 0
SMALL
GASTEIGER

@<TRIPOS>ATOM
      1 S          -2.4463   -0.8936   -1.1496 S.O2    1  LIG1        0.0752
      2 O          -4.0538   -1.1241   -4.4402 O.2     1  LIG1       -0.3377
      3 O          -1.0644   -1.1369   -0.8138 O.2     1  LIG1       -0.1499
      4 O          -3.4366   -1.9417   -0.9928 O.2     1  LIG1       -0.1499
      5 O           4.1662    2.4972    0.9406 O.2     1  LIG1       -0.4436
      6 N          -2.5518   -0.2723   -2.7331 N.pl3   1  LIG1       -0.1831
      7 N          -4.1521   -2.1769   -5.3243 N.ar    1  LIG1       -0.0810
      8 N           4.3183    1.6784   -1.1585 N.ar    1  LIG1       -0.2175
      9 C          -3.0596    0.5366   -0.2571 C.ar    1  LIG1        0.1162
     10 C          -2.2420    1.6029    0.1680 C.ar    1  LIG1        0.0087
     11 C          -0.7728    1.6756    0.0573 C.ar    1  LIG1       -0.0160
     12 C          -4.4537    0.5653   -0.0377 C.ar    1  LIG1       -0.0345
     13 C          -2.9110   -1.2373   -3.7116 C.ar    1  LIG1        0.2399
     14 C          -2.8938    2.7000    0.7797 C.ar    1  LIG1       -0.0521
     15 C          -2.1940   -2.3283   -4.1516 C.ar    1  LIG1        0.0350
     16 C           0.0061    1.7905    1.2232 C.ar    1  LIG1       -0.0533
     17 C          -0.1048    1.6949   -1.1746 C.ar    1  LIG1       -0.0533
     18 C          -5.0564    1.6575    0.5796 C.ar    1  LIG1       -0.0599
     19 C          -4.2761    2.7311    0.9812 C.ar    1  LIG1       -0.0611
     20 C           2.0619    1.8946   -0.0691 C.ar    1  LIG1        0.0369
     21 C          -3.0391   -2.8977   -5.1489 C.ar    1  LIG1        0.0854
     22 C           1.3989    1.9090    1.1625 C.ar    1  LIG1       -0.0489
     23 C           1.2940    1.7785   -1.2351 C.ar    1  LIG1       -0.0489
     24 C          -0.8510   -2.7988   -3.7442 C.3     1  LIG1       -0.0330
     25 C          -2.8032   -4.1026   -5.9783 C.3     1  LIG1       -0.0188
     26 C           3.5154    1.9892   -0.1569 C.ar    1  LIG1        0.2271
     27 C           5.4800    2.4877    0.5841 C.ar    1  LIG1        0.1125
     28 C           5.5707    1.9753   -0.6841 C.ar    1  LIG1        0.0663
     29 H          -3.2006    0.5142   -2.7663 H       1  LIG1        0.1768
     30 H          -5.0858   -0.2651   -0.3527 H       1  LIG1        0.0637
     31 H          -2.3093    3.5595    1.1104 H       1  LIG1        0.0624
     32 H          -0.4716    1.7887    2.2019 H       1  LIG1        0.0624
     33 H          -0.6554    1.6300   -2.1090 H       1  LIG1        0.0624
     34 H          -6.1317    1.6698    0.7422 H       1  LIG1        0.0618
     35 H          -4.7361    3.5930    1.4583 H       1  LIG1        0.0618
     36 H           1.9598    1.9970    2.0907 H       1  LIG1        0.0625
     37 H           1.7856    1.7553   -2.2065 H       1  LIG1        0.0625
     38 H          -0.2898   -2.0228   -3.2171 H       1  LIG1        0.0280
     39 H          -0.2621   -3.0765   -4.6254 H       1  LIG1        0.0280
     40 H          -0.9316   -3.6759   -3.0954 H       1  LIG1        0.0280
     41 H          -3.7245   -4.4423   -6.4635 H       1  LIG1        0.0294
     42 H          -2.4250   -4.9267   -5.3656 H       1  LIG1        0.0294
     43 H          -2.0678   -3.8853   -6.7594 H       1  LIG1        0.0294
     44 H           6.1828    2.8587    1.3150 H       1  LIG1        0.1046
     45 H           6.4589    1.8102   -1.2774 H       1  LIG1        0.0862
@<TRIPOS>BOND
     1     1     3    2
     2     1     4    2
     3     1     6    1
     4     1     9    1
     5     2     7   ar
     6     2    13   ar
     7     5    26   ar
     8     5    27   ar
     9     6    13    1
    10     7    21   ar
    11     8    26   ar
    12     8    28   ar
    13     9    10   ar
    14     9    12   ar
    15    10    11    1
    16    10    14   ar
    17    11    16   ar
    18    11    17   ar
    19    12    18   ar
    20    13    15   ar
    21    14    19   ar
    22    15    21   ar
    23    15    24    1
    24    16    22   ar
    25    17    23   ar
    26    18    19   ar
    27    20    22   ar
    28    20    23   ar
    29    20    26    1
    30    21    25    1
    31    27    28   ar
    32     6    29    1
    33    12    30    1
    34    14    31    1
    35    16    32    1
    36    17    33    1
    37    18    34    1
    38    19    35    1
    39    22    36    1
    40    23    37    1
    41    24    38    1
    42    24    39    1
    43    24    40    1
    44    25    41    1
    45    25    42    1
    46    25    43    1
    47    27    44    1
    48    28    45    1
@<TRIPOS>MOLECULE
9843631
 45 48 0 0 0
SMALL
GASTEIGER

@<TRIPOS>ATOM
      1 S          -2.4056   -0.8826   -1.1625 S.O2    1  LIG1        0.0752
      2 O          -4.0538   -1.1041   -4.4308 O.2     1  LIG1       -0.3377
      3 O          -1.0149   -1.1032   -0.8421 O.2     1  LIG1       -0.1499
      4 O          -3.3731   -1.9497   -1.0023 O.2     1  LIG1       -0.1499
      5 O           4.1198    1.8727   -1.3552 O.2     1  LIG1       -0.4436
      6 N          -2.5330   -0.2529   -2.7388 N.pl3   1  LIG1       -0.1831
      7 N          -4.1637   -2.1584   -5.3114 N.ar    1  LIG1       -0.0810
      8 N           4.3813    2.1053    0.8768 N.ar    1  LIG1       -0.2175
      9 C          -3.0371    0.5259   -0.2505 C.ar    1  LIG1        0.1162
     10 C          -2.2295    1.5934    0.1910 C.ar    1  LIG1        0.0087
     11 C          -0.7642    1.6752    0.0709 C.ar    1  LIG1       -0.0160
     12 C          -4.4305    0.5392   -0.0284 C.ar    1  LIG1       -0.0345
     13 C          -2.9019   -1.2148   -3.7160 C.ar    1  LIG1        0.2399
     14 C          -2.8856    2.6735    0.8249 C.ar    1  LIG1       -0.0521
     15 C          -2.1911   -2.3075   -4.1650 C.ar    1  LIG1        0.0350
     16 C           0.0283    1.6840    1.2323 C.ar    1  LIG1       -0.0533
     17 C          -0.1159    1.7964   -1.1648 C.ar    1  LIG1       -0.0533
     18 C          -5.0400    1.6164    0.6083 C.ar    1  LIG1       -0.0599
     19 C          -4.2689    2.6893    1.0285 C.ar    1  LIG1       -0.0611
     20 C           2.0676    1.8788   -0.0793 C.ar    1  LIG1        0.0369
     21 C          -3.0480   -2.8788   -5.1481 C.ar    1  LIG1        0.0854
     22 C           1.4205    1.7917    1.1583 C.ar    1  LIG1       -0.0489
     23 C           1.2821    1.8813   -1.2404 C.ar    1  LIG1       -0.0489
     24 C          -0.8416   -2.7779   -3.7754 C.3     1  LIG1       -0.0330
     25 C          -2.8241   -4.0881   -5.9757 C.3     1  LIG1       -0.0188
     26 C           3.5255    1.9644   -0.1218 C.ar    1  LIG1        0.2271
     27 C           5.4531    1.9580   -1.0897 C.ar    1  LIG1        0.1125
     28 C           5.6077    2.1037    0.2645 C.ar    1  LIG1        0.0663
     29 H          -3.1866    0.5312   -2.7594 H       1  LIG1        0.1768
     30 H          -5.0539   -0.2925   -0.3554 H       1  LIG1        0.0637
     31 H          -2.3048    3.5296    1.1721 H       1  LIG1        0.0624
     32 H          -0.4364    1.6037    2.2141 H       1  LIG1        0.0624
     33 H          -0.6855    1.8135   -2.0909 H       1  LIG1        0.0624
     34 H          -6.1151    1.6163    0.7735 H       1  LIG1        0.0618
     35 H          -4.7344    3.5374    1.5210 H       1  LIG1        0.0618
     36 H           2.0019    1.7954    2.0785 H       1  LIG1        0.0625
     37 H           1.7504    1.9478   -2.2199 H       1  LIG1        0.0625
     38 H          -0.2816   -2.0127   -3.2327 H       1  LIG1        0.0280
     39 H          -0.2564   -3.0317   -4.6660 H       1  LIG1        0.0280
     40 H          -0.9133   -3.6714   -3.1469 H       1  LIG1        0.0280
     41 H          -3.7502   -4.4238   -6.4557 H       1  LIG1        0.0294
     42 H          -2.4483   -4.9132   -5.3618 H       1  LIG1        0.0294
     43 H          -2.0912   -3.8784   -6.7605 H       1  LIG1        0.0294
     44 H           6.1202    1.8988   -1.9363 H       1  LIG1        0.1046
     45 H           6.5249    2.2034    0.8278 H       1  LIG1        0.0862
@<TRIPOS>BOND
     1     1     3    2
     2     1     4    2
     3     1     6    1
     4     1     9    1
     5     2     7   ar
     6     2    13   ar
     7     5    26   ar
     8     5    27   ar
     9     6    13    1
    10     7    21   ar
    11     8    26   ar
    12     8    28   ar
    13     9    10   ar
    14     9    12   ar
    15    10    11    1
    16    10    14   ar
    17    11    16   ar
    18    11    17   ar
    19    12    18   ar
    20    13    15   ar
    21    14    19   ar
    22    15    21   ar
    23    15    24    1
    24    16    22   ar
    25    17    23   ar
    26    18    19   ar
    27    20    22   ar
    28    20    23   ar
    29    20    26    1
    30    21    25    1
    31    27    28   ar
    32     6    29    1
    33    12    30    1
    34    14    31    1
    35    16    32    1
    36    17    33    1
    37    18    34    1
    38    19    35    1
    39    22    36    1
    40    23    37    1
    41    24    38    1
    42    24    39    1
    43    24    40    1
    44    25    41    1
    45    25    42    1
    46    25    43    1
    47    27    44    1
    48    28    45    1
@<TRIPOS>MOLECULE
9843631
 45 48 0 0 0
SMALL
GASTEIGER

@<TRIPOS>ATOM
      1 S          -2.3439   -0.9560   -0.9719 S.O2    1  LIG1        0.0752
      2 O          -1.0585   -2.0863   -3.8284 O.2     1  LIG1       -0.3377
      3 O          -0.9932   -1.1874   -0.5223 O.2     1  LIG1       -0.1499
      4 O          -3.3588   -1.9866   -0.8553 O.2     1  LIG1       -0.1499
      5 O           4.2126    2.0975    1.1338 O.2     1  LIG1       -0.4436
      6 N          -2.3664   -0.4101   -2.5874 N.pl3   1  LIG1       -0.1831
      7 N          -1.2806   -3.0237   -4.8244 N.ar    1  LIG1       -0.0810
      8 N           4.3294    1.8415   -1.1061 N.ar    1  LIG1       -0.2175
      9 C          -3.0161    0.5134   -0.1909 C.ar    1  LIG1        0.1162
     10 C          -2.2377    1.6258    0.1948 C.ar    1  LIG1        0.0087
     11 C          -0.7656    1.7415    0.1013 C.ar    1  LIG1       -0.0160
     12 C          -4.4175    0.5113   -0.0086 C.ar    1  LIG1       -0.0345
     13 C          -2.2324   -1.4878   -3.5023 C.ar    1  LIG1        0.2399
     14 C          -2.9413    2.7249    0.7440 C.ar    1  LIG1       -0.0521
     15 C          -3.2581   -2.0464   -4.2323 C.ar    1  LIG1        0.0350
     16 C          -0.0628    1.5810   -1.1007 C.ar    1  LIG1       -0.0533
     17 C          -0.0114    2.0623    1.2461 C.ar    1  LIG1       -0.0533
     18 C          -5.0684    1.6088    0.5425 C.ar    1  LIG1       -0.0599
     19 C          -4.3291    2.7201    0.9163 C.ar    1  LIG1       -0.0611
     20 C           2.0803    1.9330    0.0118 C.ar    1  LIG1        0.0369
     21 C          -2.5987   -3.0038   -5.0511 C.ar    1  LIG1        0.0854
     22 C           1.3371    1.6490   -1.1394 C.ar    1  LIG1       -0.0489
     23 C           1.3849    2.1672    1.2024 C.ar    1  LIG1       -0.0489
     24 C          -4.7141   -1.7900   -4.1500 C.3     1  LIG1       -0.0330
     25 C          -3.2050   -3.9236   -6.0422 C.3     1  LIG1       -0.0188
     26 C           3.5388    1.9598   -0.0569 C.ar    1  LIG1        0.2271
     27 C           5.5264    2.0423    0.7811 C.ar    1  LIG1        0.1125
     28 C           5.5944    1.8875   -0.5789 C.ar    1  LIG1        0.0663
     29 H          -3.2174    0.1269   -2.7363 H       1  LIG1        0.1768
     30 H          -5.0179   -0.3516   -0.2957 H       1  LIG1        0.0637
     31 H          -2.3958    3.6185    1.0492 H       1  LIG1        0.0624
     32 H          -0.5810    1.3671   -2.0301 H       1  LIG1        0.0624
     33 H          -0.5088    2.2247    2.2015 H       1  LIG1        0.0624
     34 H          -6.1469    1.5952    0.6792 H       1  LIG1        0.0618
     35 H          -4.8260    3.5850    1.3494 H       1  LIG1        0.0618
     36 H           1.8489    1.4544   -2.0818 H       1  LIG1        0.0625
     37 H           1.9211    2.4163    2.1152 H       1  LIG1        0.0625
     38 H          -4.9511   -0.9736   -3.4614 H       1  LIG1        0.0280
     39 H          -5.2305   -2.6843   -3.7866 H       1  LIG1        0.0280
     40 H          -5.1197   -1.5297   -5.1319 H       1  LIG1        0.0280
     41 H          -2.4444   -4.4656   -6.6132 H       1  LIG1        0.0294
     42 H          -3.8242   -3.3651   -6.7525 H       1  LIG1        0.0294
     43 H          -3.8406   -4.6573   -5.5367 H       1  LIG1        0.0294
     44 H           6.2464    2.1199    1.5820 H       1  LIG1        0.1046
     45 H           6.4743    1.8034   -1.2012 H       1  LIG1        0.0862
@<TRIPOS>BOND
     1     1     3    2
     2     1     4    2
     3     1     6    1
     4     1     9    1
     5     2     7   ar
     6     2    13   ar
     7     5    26   ar
     8     5    27   ar
     9     6    13    1
    10     7    21   ar
    11     8    26   ar
    12     8    28   ar
    13     9    10   ar
    14     9    12   ar
    15    10    11    1
    16    10    14   ar
    17    11    16   ar
    18    11    17   ar
    19    12    18   ar
    20    13    15   ar
    21    14    19   ar
    22    15    21   ar
    23    15    24    1
    24    16    22   ar
    25    17    23   ar
    26    18    19   ar
    27    20    22   ar
    28    20    23   ar
    29    20    26    1
    30    21    25    1
    31    27    28   ar
    32     6    29    1
    33    12    30    1
    34    14    31    1
    35    16    32    1
    36    17    33    1
    37    18    34    1
    38    19    35    1
    39    22    36    1
    40    23    37    1
    41    24    38    1
    42    24    39    1
    43    24    40    1
    44    25    41    1
    45    25    42    1
    46    25    43    1
    47    27    44    1
    48    28    45    1
@<TRIPOS>MOLECULE
9843631
 45 48 0 0 0
SMALL
GASTEIGER

@<TRIPOS>ATOM
      1 S          -2.3553   -0.9537   -1.0480 S.O2    1  LIG1        0.0752
      2 O          -3.2613   -1.9773   -4.2978 O.2     1  LIG1       -0.3377
      3 O          -0.9974   -1.1908   -0.6247 O.2     1  LIG1       -0.1499
      4 O          -3.3635   -1.9947   -0.9333 O.2     1  LIG1       -0.1499
      5 O           4.1266    1.0134   -0.8500 O.2     1  LIG1       -0.4436
      6 N          -2.3891   -0.3924   -2.6637 N.pl3   1  LIG1       -0.1831
      7 N          -2.8011   -2.9157   -5.1934 N.ar    1  LIG1       -0.0810
      8 N           4.3716    2.7112    0.6199 N.ar    1  LIG1       -0.2175
      9 C          -3.0232    0.5057   -0.2352 C.ar    1  LIG1        0.1162
     10 C          -2.2453    1.6105    0.1831 C.ar    1  LIG1        0.0087
     11 C          -0.7728    1.7382    0.0902 C.ar    1  LIG1       -0.0160
     12 C          -4.4246    0.4976   -0.0471 C.ar    1  LIG1       -0.0345
     13 C          -2.2157   -1.4507   -3.6035 C.ar    1  LIG1        0.2399
     14 C          -2.9535    2.6944    0.7590 C.ar    1  LIG1       -0.0521
     15 C          -1.0363   -1.9911   -4.0656 C.ar    1  LIG1        0.0350
     16 C          -0.0713    1.5483   -1.1075 C.ar    1  LIG1       -0.0533
     17 C          -0.0144    2.1056    1.2207 C.ar    1  LIG1       -0.0533
     18 C          -5.0782    1.5801    0.5333 C.ar    1  LIG1       -0.0599
     19 C          -4.3413    2.6835    0.9328 C.ar    1  LIG1       -0.0611
     20 C           2.0698    1.9204   -0.0108 C.ar    1  LIG1        0.0369
     21 C          -1.4697   -2.9195   -5.0590 C.ar    1  LIG1        0.0854
     22 C           1.3274    1.5955   -1.1503 C.ar    1  LIG1       -0.0489
     23 C           1.3806    2.2173    1.1675 C.ar    1  LIG1       -0.0489
     24 C           0.3610   -1.6721   -3.7025 C.3     1  LIG1       -0.0330
     25 C          -0.6446   -3.7943   -5.9248 C.3     1  LIG1       -0.0188
     26 C           3.5247    1.9469   -0.0430 C.ar    1  LIG1        0.2271
     27 C           5.4592    1.2227   -0.6640 C.ar    1  LIG1        0.1125
     28 C           5.6047    2.2695    0.2087 C.ar    1  LIG1        0.0663
     29 H          -3.3195    0.0053   -2.8149 H       1  LIG1        0.1768
     30 H          -5.0254   -0.3586   -0.3538 H       1  LIG1        0.0637
     31 H          -2.4127    3.5847    1.0826 H       1  LIG1        0.0624
     32 H          -0.5973    1.3243   -2.0314 H       1  LIG1        0.0624
     33 H          -0.5073    2.3004    2.1715 H       1  LIG1        0.0624
     34 H          -6.1559    1.5593    0.6712 H       1  LIG1        0.0618
     35 H          -4.8395    3.5370    1.3843 H       1  LIG1        0.0618
     36 H           1.8341    1.3733   -2.0882 H       1  LIG1        0.0625
     37 H           1.9304    2.5056    2.0620 H       1  LIG1        0.0625
     38 H           0.4234   -0.8711   -2.9627 H       1  LIG1        0.0280
     39 H           0.9160   -1.3434   -4.5884 H       1  LIG1        0.0280
     40 H           0.8647   -2.5549   -3.2940 H       1  LIG1        0.0280
     41 H          -1.2656   -4.4531   -6.5398 H       1  LIG1        0.0294
     42 H           0.0168   -4.4213   -5.3196 H       1  LIG1        0.0294
     43 H          -0.0284   -3.1880   -6.5974 H       1  LIG1        0.0294
     44 H           6.1299    0.5730   -1.2051 H       1  LIG1        0.1046
     45 H           6.5198    2.7182    0.5669 H       1  LIG1        0.0862
@<TRIPOS>BOND
     1     1     3    2
     2     1     4    2
     3     1     6    1
     4     1     9    1
     5     2     7   ar
     6     2    13   ar
     7     5    26   ar
     8     5    27   ar
     9     6    13    1
    10     7    21   ar
    11     8    26   ar
    12     8    28   ar
    13     9    10   ar
    14     9    12   ar
    15    10    11    1
    16    10    14   ar
    17    11    16   ar
    18    11    17   ar
    19    12    18   ar
    20    13    15   ar
    21    14    19   ar
    22    15    21   ar
    23    15    24    1
    24    16    22   ar
    25    17    23   ar
    26    18    19   ar
    27    20    22   ar
    28    20    23   ar
    29    20    26    1
    30    21    25    1
    31    27    28   ar
    32     6    29    1
    33    12    30    1
    34    14    31    1
    35    16    32    1
    36    17    33    1
    37    18    34    1
    38    19    35    1
    39    22    36    1
    40    23    37    1
    41    24    38    1
    42    24    39    1
    43    24    40    1
    44    25    41    1
    45    25    42    1
    46    25    43    1
    47    27    44    1
    48    28    45    1
@<TRIPOS>MOLECULE
9843631
 45 48 0 0 0
SMALL
GASTEIGER

@<TRIPOS>ATOM
      1 S          -2.4010   -0.9589   -0.8052 S.O2    1  LIG1        0.0752
      2 O          -1.3098   -2.4116   -3.3286 O.2     1  LIG1       -0.3377
      3 O          -0.9882   -1.0955   -0.5636 O.2     1  LIG1       -0.1499
      4 O          -3.3303   -2.0107   -0.4390 O.2     1  LIG1       -0.1499
      5 O           4.1357    1.4347   -1.2166 O.2     1  LIG1       -0.4436
      6 N          -2.6987   -0.5830   -2.4325 N.pl3   1  LIG1       -0.1831
      7 N          -1.3826   -3.3486   -4.3430 N.ar    1  LIG1       -0.0810
      8 N           4.3798    2.3412    0.8377 N.ar    1  LIG1       -0.2175
      9 C          -3.0287    0.5512   -0.0697 C.ar    1  LIG1        0.1162
     10 C          -2.2246    1.6635    0.2415 C.ar    1  LIG1        0.0087
     11 C          -0.7593    1.7336    0.1155 C.ar    1  LIG1       -0.0160
     12 C          -4.4208    0.5807    0.1644 C.ar    1  LIG1       -0.0345
     13 C          -2.4479   -1.6694   -3.3095 C.ar    1  LIG1        0.2399
     14 C          -2.8829    2.8048    0.7560 C.ar    1  LIG1       -0.0521
     15 C          -3.3090   -2.1214   -4.2876 C.ar    1  LIG1        0.0350
     16 C          -0.1055    1.6865   -1.1239 C.ar    1  LIG1       -0.0533
     17 C           0.0283    1.8916    1.2687 C.ar    1  LIG1       -0.0533
     18 C          -5.0332    1.7194    0.6810 C.ar    1  LIG1       -0.0599
     19 C          -4.2636    2.8362    0.9696 C.ar    1  LIG1       -0.0611
     20 C           2.0737    1.8806   -0.0449 C.ar    1  LIG1        0.0369
     21 C          -2.5835   -3.1781   -4.9065 C.ar    1  LIG1        0.0854
     22 C           1.2944    1.7395   -1.2008 C.ar    1  LIG1       -0.0489
     23 C           1.4214    1.9748    1.1895 C.ar    1  LIG1       -0.0489
     24 C          -4.6890   -1.6888   -4.6063 C.3     1  LIG1       -0.0330
     25 C          -3.0163   -4.0602   -6.0158 C.3     1  LIG1       -0.0188
     26 C           3.5313    1.9256   -0.0866 C.ar    1  LIG1        0.2271
     27 C           5.4677    1.5461   -0.9571 C.ar    1  LIG1        0.1125
     28 C           5.6128    2.1078    0.2853 C.ar    1  LIG1        0.0663
     29 H          -3.5931   -0.1210   -2.5604 H       1  LIG1        0.1768
     30 H          -5.0408   -0.2887   -0.0519 H       1  LIG1        0.0637
     31 H          -2.3039    3.6956    1.0030 H       1  LIG1        0.0624
     32 H          -0.6722    1.5754   -2.0451 H       1  LIG1        0.0624
     33 H          -0.4401    1.9410    2.2502 H       1  LIG1        0.0624
     34 H          -6.1057    1.7316    0.8602 H       1  LIG1        0.0618
     35 H          -4.7295    3.7321    1.3735 H       1  LIG1        0.0618
     36 H           1.7694    1.6603   -2.1767 H       1  LIG1        0.0625
     37 H           2.0003    2.0912    2.1040 H       1  LIG1        0.0625
     38 H          -5.0031   -0.8266   -4.0117 H       1  LIG1        0.0280
     39 H          -5.3926   -2.5030   -4.4023 H       1  LIG1        0.0280
     40 H          -4.7759   -1.4161   -5.6626 H       1  LIG1        0.0280
     41 H          -2.1635   -4.5492   -6.4978 H       1  LIG1        0.0294
     42 H          -3.5487   -3.4878   -6.7822 H       1  LIG1        0.0294
     43 H          -3.6892   -4.8368   -5.6386 H       1  LIG1        0.0294
     44 H           6.1410    1.1939   -1.7236 H       1  LIG1        0.1046
     45 H           6.5266    2.3477    0.8098 H       1  LIG1        0.0862
@<TRIPOS>BOND
     1     1     3    2
     2     1     4    2
     3     1     6    1
     4     1     9    1
     5     2     7   ar
     6     2    13   ar
     7     5    26   ar
     8     5    27   ar
     9     6    13    1
    10     7    21   ar
    11     8    26   ar
    12     8    28   ar
    13     9    10   ar
    14     9    12   ar
    15    10    11    1
    16    10    14   ar
    17    11    16   ar
    18    11    17   ar
    19    12    18   ar
    20    13    15   ar
    21    14    19   ar
    22    15    21   ar
    23    15    24    1
    24    16    22   ar
    25    17    23   ar
    26    18    19   ar
    27    20    22   ar
    28    20    23   ar
    29    20    26    1
    30    21    25    1
    31    27    28   ar
    32     6    29    1
    33    12    30    1
    34    14    31    1
    35    16    32    1
    36    17    33    1
    37    18    34    1
    38    19    35    1
    39    22    36    1
    40    23    37    1
    41    24    38    1
    42    24    39    1
    43    24    40    1
    44    25    41    1
    45    25    42    1
    46    25    43    1
    47    27    44    1
    48    28    45    1
@<TRIPOS>MOLECULE
9843631
 45 48 0 0 0
SMALL
GASTEIGER

@<TRIPOS>ATOM
      1 S          -2.4026   -0.9630   -1.0506 S.O2    1  LIG1        0.0752
      2 O          -3.2977   -4.1358    0.3051 O.2     1  LIG1       -0.3377
      3 O          -3.4775   -1.5056   -1.8545 O.2     1  LIG1       -0.1499
      4 O          -1.1088   -0.6952   -1.6373 O.2     1  LIG1       -0.1499
      5 O           4.2474    0.7191    0.0776 O.2     1  LIG1       -0.4436
      6 N          -2.2260   -1.9533    0.3321 N.pl3   1  LIG1       -0.1831
      7 N          -3.0122   -5.4379   -0.0430 N.ar    1  LIG1       -0.0810
      8 N           4.2789    2.9544   -0.2451 N.ar    1  LIG1       -0.2175
      9 C          -3.0421    0.5084   -0.2465 C.ar    1  LIG1        0.1162
     10 C          -2.2334    1.5141    0.3236 C.ar    1  LIG1        0.0087
     11 C          -0.7560    1.5860    0.2755 C.ar    1  LIG1       -0.0160
     12 C          -4.4519    0.5870   -0.1738 C.ar    1  LIG1       -0.0345
     13 C          -2.2340   -3.3391    0.0180 C.ar    1  LIG1        0.2399
     14 C          -2.9081    2.5659    0.9897 C.ar    1  LIG1       -0.0521
     15 C          -1.2002   -4.1081   -0.4686 C.ar    1  LIG1        0.0350
     16 C           0.0706    0.5632    0.7592 C.ar    1  LIG1       -0.0533
     17 C          -0.1247    2.7388   -0.2313 C.ar    1  LIG1       -0.0533
     18 C          -5.0757    1.6446    0.4812 C.ar    1  LIG1       -0.0599
     19 C          -4.3024    2.6321    1.0699 C.ar    1  LIG1       -0.0611
     20 C           2.0835    1.7856    0.1251 C.ar    1  LIG1        0.0369
     21 C          -1.7562   -5.4214   -0.5026 C.ar    1  LIG1        0.0854
     22 C           1.4673    0.6475    0.6578 C.ar    1  LIG1       -0.0489
     23 C           1.2693    2.8434   -0.2909 C.ar    1  LIG1       -0.0489
     24 C           0.1830   -3.7156   -0.8192 C.3     1  LIG1       -0.0330
     25 C          -1.1089   -6.6852   -0.9251 C.3     1  LIG1       -0.0188
     26 C           3.5330    1.8884   -0.0096 C.ar    1  LIG1        0.2271
     27 C           5.5369    1.0984   -0.1300 C.ar    1  LIG1        0.1125
     28 C           5.5550    2.4568   -0.3150 C.ar    1  LIG1        0.0663
     29 H          -3.0084   -1.7560    0.9584 H       1  LIG1        0.1768
     30 H          -5.0800   -0.1796   -0.6246 H       1  LIG1        0.0637
     31 H          -2.3346    3.3621    1.4657 H       1  LIG1        0.0624
     32 H          -0.3525   -0.3330    1.2011 H       1  LIG1        0.0624
     33 H          -0.7199    3.5731   -0.5978 H       1  LIG1        0.0624
     34 H          -6.1610    1.6934    0.5319 H       1  LIG1        0.0618
     35 H          -4.7768    3.4618    1.5890 H       1  LIG1        0.0618
     36 H           2.0675   -0.1945    0.9984 H       1  LIG1        0.0625
     37 H           1.7188    3.7522   -0.6904 H       1  LIG1        0.0625
     38 H           0.3871   -2.6679   -0.5883 H       1  LIG1        0.0280
     39 H           0.3715   -3.8791   -1.8829 H       1  LIG1        0.0280
     40 H           0.9004   -4.3192   -0.2477 H       1  LIG1        0.0280
     41 H          -1.8238   -7.5163   -0.9437 H       1  LIG1        0.0294
     42 H          -0.3044   -6.9485   -0.2329 H       1  LIG1        0.0294
     43 H          -0.6858   -6.5838   -1.9288 H       1  LIG1        0.0294
     44 H           6.2804    0.3154   -0.1158 H       1  LIG1        0.1046
     45 H           6.4067    3.0966   -0.4991 H       1  LIG1        0.0862
@<TRIPOS>BOND
     1     1     3    2
     2     1     4    2
     3     1     6    1
     4     1     9    1
     5     2     7   ar
     6     2    13   ar
     7     5    26   ar
     8     5    27   ar
     9     6    13    1
    10     7    21   ar
    11     8    26   ar
    12     8    28   ar
    13     9    10   ar
    14     9    12   ar
    15    10    11    1
    16    10    14   ar
    17    11    16   ar
    18    11    17   ar
    19    12    18   ar
    20    13    15   ar
    21    14    19   ar
    22    15    21   ar
    23    15    24    1
    24    16    22   ar
    25    17    23   ar
    26    18    19   ar
    27    20    22   ar
    28    20    23   ar
    29    20    26    1
    30    21    25    1
    31    27    28   ar
    32     6    29    1
    33    12    30    1
    34    14    31    1
    35    16    32    1
    36    17    33    1
    37    18    34    1
    38    19    35    1
    39    22    36    1
    40    23    37    1
    41    24    38    1
    42    24    39    1
    43    24    40    1
    44    25    41    1
    45    25    42    1
    46    25    43    1
    47    27    44    1
    48    28    45    1
@<TRIPOS>MOLECULE
9843631
 45 48 0 0 0
SMALL
GASTEIGER

@<TRIPOS>ATOM
      1 S          -2.4103   -0.9797   -0.9836 S.O2    1  LIG1        0.0752
      2 O          -3.1847   -4.2128    0.4761 O.2     1  LIG1       -0.3377
      3 O          -3.4799   -1.5161   -1.7998 O.2     1  LIG1       -0.1499
      4 O          -1.1089   -0.7207   -1.5525 O.2     1  LIG1       -0.1499
      5 O           4.0560    3.0424   -0.4474 O.2     1  LIG1       -0.4436
      6 N          -2.2625   -1.9646    0.4003 N.pl3   1  LIG1       -0.1831
      7 N          -2.8630   -5.4943    0.0821 N.ar    1  LIG1       -0.0810
      8 N           4.4377    0.9790    0.3868 N.ar    1  LIG1       -0.2175
      9 C          -3.0495    0.5005   -0.2005 C.ar    1  LIG1        0.1162
     10 C          -2.2307    1.5138    0.3347 C.ar    1  LIG1        0.0087
     11 C          -0.7606    1.5712    0.2568 C.ar    1  LIG1       -0.0160
     12 C          -4.4554    0.5921   -0.1172 C.ar    1  LIG1       -0.0345
     13 C          -2.2033   -3.3524    0.0949 C.ar    1  LIG1        0.2399
     14 C          -2.8828    2.5882    0.9832 C.ar    1  LIG1       -0.0521
     15 C          -1.1798   -4.0583   -0.4965 C.ar    1  LIG1        0.0350
     16 C           0.0660    0.6465    0.9091 C.ar    1  LIG1       -0.0533
     17 C          -0.1432    2.6183   -0.4498 C.ar    1  LIG1       -0.0533
     18 C          -5.0623    1.6711    0.5192 C.ar    1  LIG1       -0.0599
     19 C          -4.2745    2.6667    1.0781 C.ar    1  LIG1       -0.0611
     20 C           2.0717    1.7892    0.1134 C.ar    1  LIG1        0.0369
     21 C          -1.6636   -5.3995   -0.5025 C.ar    1  LIG1        0.0854
     22 C           1.4623    0.7445    0.8222 C.ar    1  LIG1       -0.0489
     23 C           1.2496    2.7310   -0.5151 C.ar    1  LIG1       -0.0489
     24 C           0.1365   -3.5803   -0.9781 C.3     1  LIG1       -0.0330
     25 C          -0.9979   -6.6176   -1.0211 C.3     1  LIG1       -0.0188
     26 C           3.5278    1.8712    0.0387 C.ar    1  LIG1        0.2271
     27 C           5.4025    2.8475   -0.4012 C.ar    1  LIG1        0.1125
     28 C           5.6311    1.5904    0.0953 C.ar    1  LIG1        0.0663
     29 H          -3.0548   -1.7913    1.0200 H       1  LIG1        0.1768
     30 H          -5.0920   -0.1799   -0.5485 H       1  LIG1        0.0637
     31 H          -2.2917    3.3900    1.4275 H       1  LIG1        0.0624
     32 H          -0.3613   -0.1717    1.4835 H       1  LIG1        0.0624
     33 H          -0.7497    3.3628   -0.9636 H       1  LIG1        0.0624
     34 H          -6.1465    1.7324    0.5781 H       1  LIG1        0.0618
     35 H          -4.7376    3.5118    1.5820 H       1  LIG1        0.0618
     36 H           2.0784   -0.0056    1.3163 H       1  LIG1        0.0625
     37 H           1.6825    3.5574   -1.0751 H       1  LIG1        0.0625
     38 H           0.4258   -2.6422   -0.4958 H       1  LIG1        0.0280
     39 H           0.1169   -3.4290   -2.0613 H       1  LIG1        0.0280
     40 H           0.9186   -4.3123   -0.7487 H       1  LIG1        0.0280
     41 H          -1.6963   -7.4579   -1.0927 H       1  LIG1        0.0294
     42 H          -0.1788   -6.9124   -0.3575 H       1  LIG1        0.0294
     43 H          -0.5872   -6.4380   -2.0196 H       1  LIG1        0.0294
     44 H           6.0220    3.6626   -0.7447 H       1  LIG1        0.1046
     45 H           6.5789    1.0983    0.2600 H       1  LIG1        0.0862
@<TRIPOS>BOND
     1     1     3    2
     2     1     4    2
     3     1     6    1
     4     1     9    1
     5     2     7   ar
     6     2    13   ar
     7     5    26   ar
     8     5    27   ar
     9     6    13    1
    10     7    21   ar
    11     8    26   ar
    12     8    28   ar
    13     9    10   ar
    14     9    12   ar
    15    10    11    1
    16    10    14   ar
    17    11    16   ar
    18    11    17   ar
    19    12    18   ar
    20    13    15   ar
    21    14    19   ar
    22    15    21   ar
    23    15    24    1
    24    16    22   ar
    25    17    23   ar
    26    18    19   ar
    27    20    22   ar
    28    20    23   ar
    29    20    26    1
    30    21    25    1
    31    27    28   ar
    32     6    29    1
    33    12    30    1
    34    14    31    1
    35    16    32    1
    36    17    33    1
    37    18    34    1
    38    19    35    1
    39    22    36    1
    40    23    37    1
    41    24    38    1
    42    24    39    1
    43    24    40    1
    44    25    41    1
    45    25    42    1
    46    25    43    1
    47    27    44    1
    48    28    45    1
@<TRIPOS>MOLECULE
9843631
 45 48 0 0 0
SMALL
GASTEIGER

@<TRIPOS>ATOM
      1 S          -2.3734   -0.9571   -0.8519 S.O2    1  LIG1        0.0752
      2 O          -1.2407   -2.3386   -3.4477 O.2     1  LIG1       -0.3377
      3 O          -0.9686   -1.1063   -0.5585 O.2     1  LIG1       -0.1499
      4 O          -3.3198   -2.0100   -0.5476 O.2     1  LIG1       -0.1499
      5 O           4.2065    2.3353    1.0348 O.2     1  LIG1       -0.4436
      6 N          -2.6084   -0.5324   -2.4792 N.pl3   1  LIG1       -0.1831
      7 N          -1.3553   -3.2800   -4.4554 N.ar    1  LIG1       -0.0810
      8 N           4.3196    1.7752   -1.1495 N.ar    1  LIG1       -0.2175
      9 C          -3.0188    0.5379   -0.1005 C.ar    1  LIG1        0.1162
     10 C          -2.2249    1.6515    0.2313 C.ar    1  LIG1        0.0087
     11 C          -0.7588    1.7325    0.1170 C.ar    1  LIG1       -0.0160
     12 C          -4.4143    0.5568    0.1168 C.ar    1  LIG1       -0.0345
     13 C          -2.3920   -1.6222   -3.3611 C.ar    1  LIG1        0.2399
     14 C          -2.8955    2.7828    0.7506 C.ar    1  LIG1       -0.0521
     15 C          -3.3044   -2.1020   -4.2769 C.ar    1  LIG1        0.0350
     16 C          -0.0950    1.7036   -1.1169 C.ar    1  LIG1       -0.0533
     17 C           0.0195    1.8851    1.2776 C.ar    1  LIG1       -0.0533
     18 C          -5.0388    1.6860    0.6379 C.ar    1  LIG1       -0.0599
     19 C          -4.2789    2.8042    0.9483 C.ar    1  LIG1       -0.0611
     20 C           2.0756    1.9223   -0.0200 C.ar    1  LIG1        0.0369
     21 C          -2.5933   -3.1406   -4.9406 C.ar    1  LIG1        0.0854
     22 C           1.3041    1.7785   -1.1816 C.ar    1  LIG1       -0.0489
     23 C           1.4131    1.9855    1.2111 C.ar    1  LIG1       -0.0489
     24 C          -4.7153   -1.7105   -4.4976 C.3     1  LIG1       -0.0330
     25 C          -3.0763   -4.0339   -6.0201 C.3     1  LIG1       -0.0188
     26 C           3.5316    1.9895   -0.1111 C.ar    1  LIG1        0.2271
     27 C           5.5176    2.3165    0.6705 C.ar    1  LIG1        0.1125
     28 C           5.5840    1.9652   -0.6528 C.ar    1  LIG1        0.0663
     29 H          -3.4920   -0.0495   -2.6104 H       1  LIG1        0.1768
     30 H          -5.0271   -0.3125   -0.1190 H       1  LIG1        0.0637
     31 H          -2.3248    3.6747    1.0119 H       1  LIG1        0.0624
     32 H          -0.6507    1.5936   -2.0449 H       1  LIG1        0.0624
     33 H          -0.4580    1.9178    2.2556 H       1  LIG1        0.0624
     34 H          -6.1137    1.6908    0.8026 H       1  LIG1        0.0618
     35 H          -4.7551    3.6932    1.3548 H       1  LIG1        0.0618
     36 H           1.7940    1.7125   -2.1522 H       1  LIG1        0.0625
     37 H           1.9745    2.0951    2.1364 H       1  LIG1        0.0625
     38 H          -5.0148   -0.8636   -3.8738 H       1  LIG1        0.0280
     39 H          -5.3779   -2.5480   -4.2527 H       1  LIG1        0.0280
     40 H          -4.8824   -1.4335   -5.5425 H       1  LIG1        0.0280
     41 H          -2.2480   -4.5371   -6.5288 H       1  LIG1        0.0294
     42 H          -3.6334   -3.4653   -6.7720 H       1  LIG1        0.0294
     43 H          -3.7411   -4.7990   -5.6068 H       1  LIG1        0.0294
     44 H           6.2367    2.5615    1.4374 H       1  LIG1        0.1046
     45 H           6.4628    1.8416   -1.2695 H       1  LIG1        0.0862
@<TRIPOS>BOND
     1     1     3    2
     2     1     4    2
     3     1     6    1
     4     1     9    1
     5     2     7   ar
     6     2    13   ar
     7     5    26   ar
     8     5    27   ar
     9     6    13    1
    10     7    21   ar
    11     8    26   ar
    12     8    28   ar
    13     9    10   ar
    14     9    12   ar
    15    10    11    1
    16    10    14   ar
    17    11    16   ar
    18    11    17   ar
    19    12    18   ar
    20    13    15   ar
    21    14    19   ar
    22    15    21   ar
    23    15    24    1
    24    16    22   ar
    25    17    23   ar
    26    18    19   ar
    27    20    22   ar
    28    20    23   ar
    29    20    26    1
    30    21    25    1
    31    27    28   ar
    32     6    29    1
    33    12    30    1
    34    14    31    1
    35    16    32    1
    36    17    33    1
    37    18    34    1
    38    19    35    1
    39    22    36    1
    40    23    37    1
    41    24    38    1
    42    24    39    1
    43    24    40    1
    44    25    41    1
    45    25    42    1
    46    25    43    1
    47    27    44    1
    48    28    45    1
@<TRIPOS>MOLECULE
9843631
 45 48 0 0 0
SMALL
GASTEIGER

@<TRIPOS>ATOM
      1 S          -2.3440   -1.0261   -0.8970 S.O2    1  LIG1        0.0752
      2 O          -3.7097    0.8120   -3.5747 O.2     1  LIG1       -0.3377
      3 O          -1.0396   -1.1924   -0.2957 O.2     1  LIG1       -0.1499
      4 O          -3.3396   -2.0723   -0.7615 O.2     1  LIG1       -0.1499
      5 O           4.1036    2.4527    1.0026 O.2     1  LIG1       -0.4436
      6 N          -2.0946   -0.7216   -2.5572 N.pl3   1  LIG1       -0.1831
      7 N          -4.9209    0.7496   -4.2370 N.ar    1  LIG1       -0.0810
      8 N           4.2756    1.7560   -1.1390 N.ar    1  LIG1       -0.2175
      9 C          -3.0618    0.5034   -0.2948 C.ar    1  LIG1        0.1162
     10 C          -2.2855    1.6248    0.0721 C.ar    1  LIG1        0.0087
     11 C          -0.8206    1.7104    0.0050 C.ar    1  LIG1       -0.0160
     12 C          -4.4612    0.5223   -0.1422 C.ar    1  LIG1       -0.0345
     13 C          -3.2980   -0.4435   -3.2583 C.ar    1  LIG1        0.2399
     14 C          -2.9746    2.7535    0.5690 C.ar    1  LIG1       -0.0521
     15 C          -4.1774   -1.3627   -3.7866 C.ar    1  LIG1        0.0350
     16 C          -0.1465    1.9119   -1.2067 C.ar    1  LIG1       -0.0533
     17 C          -0.0590    1.6573    1.1845 C.ar    1  LIG1       -0.0533
     18 C          -5.1075    1.6536    0.3516 C.ar    1  LIG1       -0.0599
     19 C          -4.3626    2.7707    0.7067 C.ar    1  LIG1       -0.0611
     20 C           2.0090    1.9231   -0.0659 C.ar    1  LIG1        0.0369
     21 C          -5.1947   -0.5543   -4.3675 C.ar    1  LIG1        0.0854
     22 C           1.2521    1.9873   -1.2441 C.ar    1  LIG1       -0.0489
     23 C           1.3353    1.7717    1.1515 C.ar    1  LIG1       -0.0489
     24 C          -4.0908   -2.8410   -3.7917 C.3     1  LIG1       -0.0330
     25 C          -6.4208   -0.9923   -5.0766 C.3     1  LIG1       -0.0188
     26 C           3.4640    2.0117   -0.1291 C.ar    1  LIG1        0.2271
     27 C           5.4214    2.4580    0.6601 C.ar    1  LIG1        0.1125
     28 C           5.5243    2.0159   -0.6339 C.ar    1  LIG1        0.0663
     29 H          -1.4140    0.0306   -2.6281 H       1  LIG1        0.1768
     30 H          -5.0632   -0.3453   -0.4093 H       1  LIG1        0.0637
     31 H          -2.4130    3.6422    0.8623 H       1  LIG1        0.0624
     32 H          -0.6994    2.0334   -2.1347 H       1  LIG1        0.0624
     33 H          -0.5509    1.5231    2.1466 H       1  LIG1        0.0624
     34 H          -6.1892    1.6599    0.4603 H       1  LIG1        0.0618
     35 H          -4.8591    3.6564    1.0966 H       1  LIG1        0.0618
     36 H           1.7558    2.1159   -2.2011 H       1  LIG1        0.0625
     37 H           1.8899    1.7233    2.0863 H       1  LIG1        0.0625
     38 H          -3.1298   -3.1958   -3.4079 H       1  LIG1        0.0280
     39 H          -4.1940   -3.2216   -4.8153 H       1  LIG1        0.0280
     40 H          -4.8874   -3.2765   -3.1831 H       1  LIG1        0.0280
     41 H          -7.1493   -0.1790   -5.1609 H       1  LIG1        0.0294
     42 H          -6.9032   -1.8175   -4.5428 H       1  LIG1        0.0294
     43 H          -6.1725   -1.3346   -6.0862 H       1  LIG1        0.0294
     44 H           6.1177    2.7839    1.4181 H       1  LIG1        0.1046
     45 H           6.4185    1.8778   -1.2250 H       1  LIG1        0.0862
@<TRIPOS>BOND
     1     1     3    2
     2     1     4    2
     3     1     6    1
     4     1     9    1
     5     2     7   ar
     6     2    13   ar
     7     5    26   ar
     8     5    27   ar
     9     6    13    1
    10     7    21   ar
    11     8    26   ar
    12     8    28   ar
    13     9    10   ar
    14     9    12   ar
    15    10    11    1
    16    10    14   ar
    17    11    16   ar
    18    11    17   ar
    19    12    18   ar
    20    13    15   ar
    21    14    19   ar
    22    15    21   ar
    23    15    24    1
    24    16    22   ar
    25    17    23   ar
    26    18    19   ar
    27    20    22   ar
    28    20    23   ar
    29    20    26    1
    30    21    25    1
    31    27    28   ar
    32     6    29    1
    33    12    30    1
    34    14    31    1
    35    16    32    1
    36    17    33    1
    37    18    34    1
    38    19    35    1
    39    22    36    1
    40    23    37    1
    41    24    38    1
    42    24    39    1
    43    24    40    1
    44    25    41    1
    45    25    42    1
    46    25    43    1
    47    27    44    1
    48    28    45    1
@<TRIPOS>MOLECULE
9843631
 45 48 0 0 0
SMALL
GASTEIGER

@<TRIPOS>ATOM
      1 S          -2.4057   -0.8869   -1.1511 S.O2    1  LIG1        0.0752
      2 O          -4.0369   -1.1050   -4.4217 O.2     1  LIG1       -0.3377
      3 O          -1.0212   -1.1167   -0.8112 O.2     1  LIG1       -0.1499
      4 O          -3.3830   -1.9461   -1.0007 O.2     1  LIG1       -0.1499
      5 O           4.1951    2.2860    1.0521 O.2     1  LIG1       -0.4436
      6 N          -2.5079   -0.2617   -2.7336 N.pl3   1  LIG1       -0.1831
      7 N          -4.1519   -2.1571   -5.3046 N.ar    1  LIG1       -0.0810
      8 N           4.3218    1.8088   -1.1512 N.ar    1  LIG1       -0.2175
      9 C          -3.0367    0.5326   -0.2559 C.ar    1  LIG1        0.1162
     10 C          -2.2306    1.6023    0.1810 C.ar    1  LIG1        0.0087
     11 C          -0.7623    1.6817    0.0801 C.ar    1  LIG1       -0.0160
     12 C          -4.4322    0.5498   -0.0470 C.ar    1  LIG1       -0.0345
     13 C          -2.8848   -1.2232   -3.7092 C.ar    1  LIG1        0.2399
     14 C          -2.8924    2.6915    0.7948 C.ar    1  LIG1       -0.0521
     15 C          -2.1783   -2.3165   -4.1594 C.ar    1  LIG1        0.0350
     16 C           0.0113    1.7491    1.2526 C.ar    1  LIG1       -0.0533
     17 C          -0.0911    1.7476   -1.1483 C.ar    1  LIG1       -0.0533
     18 C          -5.0465    1.6347    0.5717 C.ar    1  LIG1       -0.0599
     19 C          -4.2764    2.7116    0.9854 C.ar    1  LIG1       -0.0611
     20 C           2.0729    1.8916   -0.0275 C.ar    1  LIG1        0.0369
     21 C          -3.0395   -2.8826   -5.1446 C.ar    1  LIG1        0.0854
     22 C           1.4050    1.8603    1.2012 C.ar    1  LIG1       -0.0489
     23 C           1.3079    1.8307   -1.2002 C.ar    1  LIG1       -0.0489
     24 C          -0.8318   -2.7929   -3.7711 C.3     1  LIG1       -0.0330
     25 C          -2.8198   -4.0890   -5.9766 C.3     1  LIG1       -0.0188
     26 C           3.5289    1.9756   -0.1091 C.ar    1  LIG1        0.2271
     27 C           5.5074    2.3006    0.6911 C.ar    1  LIG1        0.1125
     28 C           5.5824    1.9993   -0.6445 C.ar    1  LIG1        0.0663
     29 H          -3.1497    0.5306   -2.7615 H       1  LIG1        0.1768
     30 H          -5.0556   -0.2833   -0.3712 H       1  LIG1        0.0637
     31 H          -2.3151    3.5519    1.1357 H       1  LIG1        0.0624
     32 H          -0.4710    1.7123    2.2283 H       1  LIG1        0.0624
     33 H          -0.6401    1.7188   -2.0857 H       1  LIG1        0.0624
     34 H          -6.1229    1.6386    0.7268 H       1  LIG1        0.0618
     35 H          -4.7463    3.5674    1.4645 H       1  LIG1        0.0618
     36 H           1.9617    1.9073    2.1348 H       1  LIG1        0.0625
     37 H           1.8025    1.8457   -2.1705 H       1  LIG1        0.0625
     38 H          -0.2735   -2.0337   -3.2169 H       1  LIG1        0.0280
     39 H          -0.2435   -3.0358   -4.6630 H       1  LIG1        0.0280
     40 H          -0.9057   -3.6929   -3.1536 H       1  LIG1        0.0280
     41 H          -3.7479   -4.4217   -6.4536 H       1  LIG1        0.0294
     42 H          -2.4421   -4.9159   -5.3673 H       1  LIG1        0.0294
     43 H          -2.0898   -3.8769   -6.7640 H       1  LIG1        0.0294
     44 H           6.2212    2.5285    1.4681 H       1  LIG1        0.1046
     45 H           6.4644    1.9133   -1.2623 H       1  LIG1        0.0862
@<TRIPOS>BOND
     1     1     3    2
     2     1     4    2
     3     1     6    1
     4     1     9    1
     5     2     7   ar
     6     2    13   ar
     7     5    26   ar
     8     5    27   ar
     9     6    13    1
    10     7    21   ar
    11     8    26   ar
    12     8    28   ar
    13     9    10   ar
    14     9    12   ar
    15    10    11    1
    16    10    14   ar
    17    11    16   ar
    18    11    17   ar
    19    12    18   ar
    20    13    15   ar
    21    14    19   ar
    22    15    21   ar
    23    15    24    1
    24    16    22   ar
    25    17    23   ar
    26    18    19   ar
    27    20    22   ar
    28    20    23   ar
    29    20    26    1
    30    21    25    1
    31    27    28   ar
    32     6    29    1
    33    12    30    1
    34    14    31    1
    35    16    32    1
    36    17    33    1
    37    18    34    1
    38    19    35    1
    39    22    36    1
    40    23    37    1
    41    24    38    1
    42    24    39    1
    43    24    40    1
    44    25    41    1
    45    25    42    1
    46    25    43    1
    47    27    44    1
    48    28    45    1
@<TRIPOS>MOLECULE
9843631
 45 48 0 0 0
SMALL
GASTEIGER

@<TRIPOS>ATOM
      1 S          -2.4345   -0.8261   -1.2372 S.O2    1  LIG1        0.0752
      2 O          -2.8827   -1.8991    2.1359 O.2     1  LIG1       -0.3377
      3 O          -3.5206   -1.3952   -2.0107 O.2     1  LIG1       -0.1499
      4 O          -1.2521   -0.3333   -1.9096 O.2     1  LIG1       -0.1499
      5 O           3.9619    3.0832   -0.2740 O.2     1  LIG1       -0.4436
      6 N          -1.9147   -1.9900   -0.1073 N.pl3   1  LIG1       -0.1831
      7 N          -3.9959   -2.3698    2.8053 N.ar    1  LIG1       -0.0810
      8 N           4.3497    0.9475    0.3498 N.ar    1  LIG1       -0.2175
      9 C          -3.1101    0.4921   -0.2272 C.ar    1  LIG1        0.1162
     10 C          -2.3062    1.4703    0.3936 C.ar    1  LIG1        0.0087
     11 C          -0.8406    1.5476    0.3122 C.ar    1  LIG1       -0.0160
     12 C          -4.5136    0.5462   -0.1184 C.ar    1  LIG1       -0.0345
     13 C          -2.9021   -2.3397    0.8499 C.ar    1  LIG1        0.2399
     14 C          -2.9630    2.4749    1.1372 C.ar    1  LIG1       -0.0521
     15 C          -3.9703   -3.1930    0.6750 C.ar    1  LIG1        0.0350
     16 C          -0.0127    0.7017    1.0623 C.ar    1  LIG1       -0.0533
     17 C          -0.2340    2.5324   -0.4849 C.ar    1  LIG1       -0.0533
     18 C          -5.1296    1.5518    0.6228 C.ar    1  LIG1       -0.0599
     19 C          -4.3539    2.5157    1.2526 C.ar    1  LIG1       -0.0611
     20 C           1.9839    1.7771    0.1644 C.ar    1  LIG1        0.0369
     21 C          -4.6443   -3.1444    1.9277 C.ar    1  LIG1        0.0854
     22 C           1.3823    0.7980    0.9671 C.ar    1  LIG1       -0.0489
     23 C           1.1582    2.6518   -0.5515 C.ar    1  LIG1       -0.0489
     24 C          -4.3373   -4.0036   -0.5094 C.3     1  LIG1       -0.0330
     25 C          -5.8908   -3.8417    2.3272 C.3     1  LIG1       -0.0188
     26 C           3.4383    1.8669    0.0891 C.ar    1  LIG1        0.2271
     27 C           5.3087    2.8895   -0.2422 C.ar    1  LIG1        0.1125
     28 C           5.5405    1.5872    0.1188 C.ar    1  LIG1        0.0663
     29 H          -1.0406   -1.6588    0.2969 H       1  LIG1        0.1768
     30 H          -5.1399   -0.1967   -0.6097 H       1  LIG1        0.0637
     31 H          -2.3785    3.2485    1.6361 H       1  LIG1        0.0624
     32 H          -0.4418   -0.0286    1.7445 H       1  LIG1        0.0624
     33 H          -0.8474    3.2187   -1.0662 H       1  LIG1        0.0624
     34 H          -6.2133    1.5831    0.7054 H       1  LIG1        0.0618
     35 H          -4.8274    3.3054    1.8312 H       1  LIG1        0.0618
     36 H           2.0060    0.1142    1.5415 H       1  LIG1        0.0625
     37 H           1.5902    3.4266   -1.1822 H       1  LIG1        0.0625
     38 H          -3.5192   -4.0576   -1.2345 H       1  LIG1        0.0280
     39 H          -5.2167   -3.5835   -1.0061 H       1  LIG1        0.0280
     40 H          -4.5711   -5.0306   -0.2089 H       1  LIG1        0.0280
     41 H          -6.3511   -3.3716    3.2024 H       1  LIG1        0.0294
     42 H          -5.6797   -4.8875    2.5708 H       1  LIG1        0.0294
     43 H          -6.6243   -3.8193    1.5144 H       1  LIG1        0.0294
     44 H           5.9266    3.7386   -0.4942 H       1  LIG1        0.1046
     45 H           6.4901    1.0824    0.2298 H       1  LIG1        0.0862
@<TRIPOS>BOND
     1     1     3    2
     2     1     4    2
     3     1     6    1
     4     1     9    1
     5     2     7   ar
     6     2    13   ar
     7     5    26   ar
     8     5    27   ar
     9     6    13    1
    10     7    21   ar
    11     8    26   ar
    12     8    28   ar
    13     9    10   ar
    14     9    12   ar
    15    10    11    1
    16    10    14   ar
    17    11    16   ar
    18    11    17   ar
    19    12    18   ar
    20    13    15   ar
    21    14    19   ar
    22    15    21   ar
    23    15    24    1
    24    16    22   ar
    25    17    23   ar
    26    18    19   ar
    27    20    22   ar
    28    20    23   ar
    29    20    26    1
    30    21    25    1
    31    27    28   ar
    32     6    29    1
    33    12    30    1
    34    14    31    1
    35    16    32    1
    36    17    33    1
    37    18    34    1
    38    19    35    1
    39    22    36    1
    40    23    37    1
    41    24    38    1
    42    24    39    1
    43    24    40    1
    44    25    41    1
    45    25    42    1
    46    25    43    1
    47    27    44    1
    48    28    45    1
@<TRIPOS>MOLECULE
9843631
 45 48 0 0 0
SMALL
GASTEIGER

@<TRIPOS>ATOM
      1 S          -2.3811   -0.9166   -1.0989 S.O2    1  LIG1        0.0752
      2 O          -3.2188   -1.8823   -4.4581 O.2     1  LIG1       -0.3377
      3 O          -1.0084   -1.1313   -0.7071 O.2     1  LIG1       -0.1499
      4 O          -3.3677   -1.9670   -0.9504 O.2     1  LIG1       -0.1499
      5 O           4.1845    2.2648    1.0132 O.2     1  LIG1       -0.4436
      6 N          -2.4636   -0.3652   -2.7116 N.pl3   1  LIG1       -0.1831
      7 N          -2.7108   -2.8421   -5.3075 N.ar    1  LIG1       -0.0810
      8 N           4.3030    1.8151   -1.1967 N.ar    1  LIG1       -0.2175
      9 C          -3.0376    0.5332   -0.2736 C.ar    1  LIG1        0.1162
     10 C          -2.2416    1.6163    0.1471 C.ar    1  LIG1        0.0087
     11 C          -0.7752    1.6974    0.0484 C.ar    1  LIG1       -0.0160
     12 C          -4.4337    0.5464   -0.0702 C.ar    1  LIG1       -0.0345
     13 C          -2.2294   -1.4041   -3.6569 C.ar    1  LIG1        0.2399
     14 C          -2.9090    2.7127    0.7401 C.ar    1  LIG1       -0.0521
     15 C          -1.0335   -1.9920   -4.0057 C.ar    1  LIG1        0.0350
     16 C          -0.1100    1.7801   -1.1819 C.ar    1  LIG1       -0.0533
     17 C           0.0000    1.7443    1.2199 C.ar    1  LIG1       -0.0533
     18 C          -5.0560    1.6401    0.5259 C.ar    1  LIG1       -0.0599
     19 C          -4.2935    2.7283    0.9252 C.ar    1  LIG1       -0.0611
     20 C           2.0577    1.8986   -0.0657 C.ar    1  LIG1        0.0369
     21 C          -1.4030   -2.9064   -5.0351 C.ar    1  LIG1        0.0854
     22 C           1.2886    1.8616   -1.2371 C.ar    1  LIG1       -0.0489
     23 C           1.3937    1.8499    1.1652 C.ar    1  LIG1       -0.0489
     24 C           0.3305   -1.7306   -3.4934 C.3     1  LIG1       -0.0330
     25 C          -0.5326   -3.8268   -5.8040 C.3     1  LIG1       -0.0188
     26 C           3.5134    1.9751   -0.1496 C.ar    1  LIG1        0.2271
     27 C           5.4961    2.2744    0.6496 C.ar    1  LIG1        0.1125
     28 C           5.5657    1.9912   -0.6898 C.ar    1  LIG1        0.0663
     29 H          -3.4060   -0.0033   -2.8667 H       1  LIG1        0.1768
     30 H          -5.0510   -0.2985   -0.3737 H       1  LIG1        0.0637
     31 H          -2.3362    3.5802    1.0698 H       1  LIG1        0.0624
     32 H          -0.6678    1.7669   -2.1152 H       1  LIG1        0.0624
     33 H          -0.4808    1.6931    2.1956 H       1  LIG1        0.0624
     34 H          -6.1326    1.6405    0.6791 H       1  LIG1        0.0618
     35 H          -4.7699    3.5887    1.3895 H       1  LIG1        0.0618
     36 H           1.7802    1.8943   -2.2083 H       1  LIG1        0.0625
     37 H           1.9536    1.8781    2.0976 H       1  LIG1        0.0625
     38 H           0.3908   -0.7734   -2.9696 H       1  LIG1        0.0280
     39 H           1.0477   -1.6890   -4.3204 H       1  LIG1        0.0280
     40 H           0.6423   -2.5257   -2.8099 H       1  LIG1        0.0280
     41 H          -1.1203   -4.5321   -6.4011 H       1  LIG1        0.0294
     42 H           0.1046   -4.4077   -5.1300 H       1  LIG1        0.0294
     43 H           0.1096   -3.2594   -6.4850 H       1  LIG1        0.0294
     44 H           6.2128    2.4870    1.4285 H       1  LIG1        0.1046
     45 H           6.4463    1.9075   -1.3109 H       1  LIG1        0.0862
@<TRIPOS>BOND
     1     1     3    2
     2     1     4    2
     3     1     6    1
     4     1     9    1
     5     2     7   ar
     6     2    13   ar
     7     5    26   ar
     8     5    27   ar
     9     6    13    1
    10     7    21   ar
    11     8    26   ar
    12     8    28   ar
    13     9    10   ar
    14     9    12   ar
    15    10    11    1
    16    10    14   ar
    17    11    16   ar
    18    11    17   ar
    19    12    18   ar
    20    13    15   ar
    21    14    19   ar
    22    15    21   ar
    23    15    24    1
    24    16    22   ar
    25    17    23   ar
    26    18    19   ar
    27    20    22   ar
    28    20    23   ar
    29    20    26    1
    30    21    25    1
    31    27    28   ar
    32     6    29    1
    33    12    30    1
    34    14    31    1
    35    16    32    1
    36    17    33    1
    37    18    34    1
    38    19    35    1
    39    22    36    1
    40    23    37    1
    41    24    38    1
    42    24    39    1
    43    24    40    1
    44    25    41    1
    45    25    42    1
    46    25    43    1
    47    27    44    1
    48    28    45    1
@<TRIPOS>MOLECULE
9843631
 45 48 0 0 0
SMALL
GASTEIGER

@<TRIPOS>ATOM
      1 S          -2.4788   -1.0198   -0.5471 S.O2    1  LIG1        0.0752
      2 O          -4.4864   -0.7840   -2.9095 O.2     1  LIG1       -0.3377
      3 O          -1.1987   -1.1879    0.1092 O.2     1  LIG1       -0.1499
      4 O          -3.5162   -2.0058   -0.3224 O.2     1  LIG1       -0.1499
      5 O           4.0507    1.5675   -1.3159 O.2     1  LIG1       -0.4436
      6 N          -2.1410   -0.9528   -2.1980 N.pl3   1  LIG1       -0.1831
      7 N          -5.2974   -1.2784   -3.9100 N.ar    1  LIG1       -0.0810
      8 N           4.2962    2.1830    0.8429 N.ar    1  LIG1       -0.2175
      9 C          -3.1299    0.5929   -0.1582 C.ar    1  LIG1        0.1162
     10 C          -2.3123    1.6997    0.1406 C.ar    1  LIG1        0.0087
     11 C          -0.8447    1.7183    0.0518 C.ar    1  LIG1       -0.0160
     12 C          -4.5301    0.6858   -0.0308 C.ar    1  LIG1       -0.0345
     13 C          -3.2241   -1.2710   -3.0515 C.ar    1  LIG1        0.2399
     14 C          -2.9530    2.8856    0.5644 C.ar    1  LIG1       -0.0521
     15 C          -3.1793   -2.1019   -4.1517 C.ar    1  LIG1        0.0350
     16 C          -0.0667    1.8201    1.2157 C.ar    1  LIG1       -0.0533
     17 C          -0.1856    1.6944   -1.1854 C.ar    1  LIG1       -0.0533
     18 C          -5.1314    1.8709    0.3859 C.ar    1  LIG1       -0.0599
     19 C          -4.3416    2.9708    0.6895 C.ar    1  LIG1       -0.0611
     20 C           1.9881    1.8328   -0.0882 C.ar    1  LIG1        0.0369
     21 C          -4.5193   -2.0856   -4.6381 C.ar    1  LIG1        0.0854
     22 C           1.3287    1.8812    1.1462 C.ar    1  LIG1       -0.0489
     23 C           1.2137    1.7407   -1.2537 C.ar    1  LIG1       -0.0489
     24 C          -2.0548   -2.9077   -4.6781 C.3     1  LIG1       -0.0330
     25 C          -5.0990   -2.8508   -5.7681 C.3     1  LIG1       -0.0188
     26 C           3.4469    1.8868   -0.1249 C.ar    1  LIG1        0.2271
     27 C           5.3828    1.6729   -1.0530 C.ar    1  LIG1        0.1125
     28 C           5.5284    2.0539    0.2557 C.ar    1  LIG1        0.0663
     29 H          -1.2143   -1.3170   -2.4012 H       1  LIG1        0.1768
     30 H          -5.1661   -0.1726   -0.2440 H       1  LIG1        0.0637
     31 H          -2.3570    3.7648    0.8093 H       1  LIG1        0.0624
     32 H          -0.5448    1.8493    2.1933 H       1  LIG1        0.0624
     33 H          -0.7576    1.6516   -2.1100 H       1  LIG1        0.0624
     34 H          -6.2128    1.9267    0.4850 H       1  LIG1        0.0618
     35 H          -4.8015    3.8955    1.0289 H       1  LIG1        0.0618
     36 H           1.9030    1.9593    2.0684 H       1  LIG1        0.0625
     37 H           1.6932    1.7166   -2.2300 H       1  LIG1        0.0625
     38 H          -1.0970   -2.6140   -4.2396 H       1  LIG1        0.0280
     39 H          -1.9721   -2.7965   -5.7638 H       1  LIG1        0.0280
     40 H          -2.2174   -3.9675   -4.4546 H       1  LIG1        0.0280
     41 H          -6.0854   -2.4684   -6.0510 H       1  LIG1        0.0294
     42 H          -5.2111   -3.9039   -5.4900 H       1  LIG1        0.0294
     43 H          -4.4527   -2.7944   -6.6495 H       1  LIG1        0.0294
     44 H           6.0564    1.4520   -1.8671 H       1  LIG1        0.1046
     45 H           6.4423    2.2365    0.8033 H       1  LIG1        0.0862
@<TRIPOS>BOND
     1     1     3    2
     2     1     4    2
     3     1     6    1
     4     1     9    1
     5     2     7   ar
     6     2    13   ar
     7     5    26   ar
     8     5    27   ar
     9     6    13    1
    10     7    21   ar
    11     8    26   ar
    12     8    28   ar
    13     9    10   ar
    14     9    12   ar
    15    10    11    1
    16    10    14   ar
    17    11    16   ar
    18    11    17   ar
    19    12    18   ar
    20    13    15   ar
    21    14    19   ar
    22    15    21   ar
    23    15    24    1
    24    16    22   ar
    25    17    23   ar
    26    18    19   ar
    27    20    22   ar
    28    20    23   ar
    29    20    26    1
    30    21    25    1
    31    27    28   ar
    32     6    29    1
    33    12    30    1
    34    14    31    1
    35    16    32    1
    36    17    33    1
    37    18    34    1
    38    19    35    1
    39    22    36    1
    40    23    37    1
    41    24    38    1
    42    24    39    1
    43    24    40    1
    44    25    41    1
    45    25    42    1
    46    25    43    1
    47    27    44    1
    48    28    45    1
@<TRIPOS>MOLECULE
9843631
 45 48 0 0 0
SMALL
GASTEIGER

@<TRIPOS>ATOM
      1 S          -2.3883   -1.0447   -0.8872 S.O2    1  LIG1        0.0752
      2 O          -3.7046    0.8040   -3.5976 O.2     1  LIG1       -0.3377
      3 O          -1.0918   -1.2247   -0.2761 O.2     1  LIG1       -0.1499
      4 O          -3.3960   -2.0797   -0.7650 O.2     1  LIG1       -0.1499
      5 O           4.0698    1.4994   -1.2089 O.2     1  LIG1       -0.4436
      6 N          -2.1205   -0.7362   -2.5447 N.pl3   1  LIG1       -0.1831
      7 N          -4.9106    0.7498   -4.2697 N.ar    1  LIG1       -0.0810
      8 N           4.2691    2.2069    0.9272 N.ar    1  LIG1       -0.2175
      9 C          -3.0970    0.4921   -0.2923 C.ar    1  LIG1        0.1162
     10 C          -2.3142    1.6084    0.0710 C.ar    1  LIG1        0.0087
     11 C          -0.8469    1.6754    0.0107 C.ar    1  LIG1       -0.0160
     12 C          -4.4971    0.5244   -0.1457 C.ar    1  LIG1       -0.0345
     13 C          -3.3143   -0.4527   -3.2596 C.ar    1  LIG1        0.2399
     14 C          -2.9904    2.7472    0.5571 C.ar    1  LIG1       -0.0521
     15 C          -4.2033   -1.3674   -3.7812 C.ar    1  LIG1        0.0350
     16 C          -0.1651    1.8935   -1.1942 C.ar    1  LIG1       -0.0533
     17 C          -0.0930    1.5832    1.1918 C.ar    1  LIG1       -0.0533
     18 C          -5.1334    1.6651    0.3389 C.ar    1  LIG1       -0.0599
     19 C          -4.3800    2.7779    0.6888 C.ar    1  LIG1       -0.0611
     20 C           1.9848    1.8278   -0.0467 C.ar    1  LIG1        0.0369
     21 C          -5.2028   -0.5516   -4.3821 C.ar    1  LIG1        0.0854
     22 C           1.2355    1.9431   -1.2261 C.ar    1  LIG1       -0.0489
     23 C           1.3025    1.6700    1.1645 C.ar    1  LIG1       -0.0489
     24 C          -4.1376   -2.8458   -3.7661 C.3     1  LIG1       -0.0330
     25 C          -6.4310   -0.9814   -5.0931 C.3     1  LIG1       -0.0188
     26 C           3.4420    1.8810   -0.0498 C.ar    1  LIG1        0.2271
     27 C           5.3966    1.5910   -0.9139 C.ar    1  LIG1        0.1125
     28 C           5.5138    2.0365    0.3782 C.ar    1  LIG1        0.0663
     29 H          -1.4383    0.0163   -2.6058 H       1  LIG1        0.1768
     30 H          -5.1058   -0.3391   -0.4096 H       1  LIG1        0.0637
     31 H          -2.4223    3.6312    0.8479 H       1  LIG1        0.0624
     32 H          -0.7142    2.0471   -2.1197 H       1  LIG1        0.0624
     33 H          -0.5904    1.4389    2.1496 H       1  LIG1        0.0624
     34 H          -6.2154    1.6825    0.4455 H       1  LIG1        0.0618
     35 H          -4.8695    3.6702    1.0714 H       1  LIG1        0.0618
     36 H           1.7392    2.0924   -2.1795 H       1  LIG1        0.0625
     37 H           1.8587    1.5960    2.0976 H       1  LIG1        0.0625
     38 H          -3.1760   -3.2087   -3.3912 H       1  LIG1        0.0280
     39 H          -4.2622   -3.2407   -4.7807 H       1  LIG1        0.0280
     40 H          -4.9318   -3.2599   -3.1379 H       1  LIG1        0.0280
     41 H          -7.1547   -0.1640   -5.1772 H       1  LIG1        0.0294
     42 H          -6.9192   -1.8044   -4.5607 H       1  LIG1        0.0294
     43 H          -6.1837   -1.3245   -6.1029 H       1  LIG1        0.0294
     44 H           6.0872    1.3146   -1.6959 H       1  LIG1        0.1046
     45 H           6.4167    2.2343    0.9388 H       1  LIG1        0.0862
@<TRIPOS>BOND
     1     1     3    2
     2     1     4    2
     3     1     6    1
     4     1     9    1
     5     2     7   ar
     6     2    13   ar
     7     5    26   ar
     8     5    27   ar
     9     6    13    1
    10     7    21   ar
    11     8    26   ar
    12     8    28   ar
    13     9    10   ar
    14     9    12   ar
    15    10    11    1
    16    10    14   ar
    17    11    16   ar
    18    11    17   ar
    19    12    18   ar
    20    13    15   ar
    21    14    19   ar
    22    15    21   ar
    23    15    24    1
    24    16    22   ar
    25    17    23   ar
    26    18    19   ar
    27    20    22   ar
    28    20    23   ar
    29    20    26    1
    30    21    25    1
    31    27    28   ar
    32     6    29    1
    33    12    30    1
    34    14    31    1
    35    16    32    1
    36    17    33    1
    37    18    34    1
    38    19    35    1
    39    22    36    1
    40    23    37    1
    41    24    38    1
    42    24    39    1
    43    24    40    1
    44    25    41    1
    45    25    42    1
    46    25    43    1
    47    27    44    1
    48    28    45    1
@<TRIPOS>MOLECULE
9843631
 45 48 0 0 0
SMALL
GASTEIGER

@<TRIPOS>ATOM
      1 S          -2.4280   -0.8527   -1.1998 S.O2    1  LIG1        0.0752
      2 O          -2.9475   -1.8679    2.1865 O.2     1  LIG1       -0.3377
      3 O          -3.5100   -1.4440   -1.9647 O.2     1  LIG1       -0.1499
      4 O          -1.2406   -0.3854   -1.8771 O.2     1  LIG1       -0.1499
      5 O           4.1919    0.8728    0.6259 O.2     1  LIG1       -0.4436
      6 N          -1.9186   -1.9793   -0.0269 N.pl3   1  LIG1       -0.1831
      7 N          -4.0694   -2.3455    2.8352 N.ar    1  LIG1       -0.0810
      8 N           4.1574    2.7767   -0.5879 N.ar    1  LIG1       -0.2175
      9 C          -3.1089    0.4934   -0.2333 C.ar    1  LIG1        0.1162
     10 C          -2.3041    1.4798    0.3731 C.ar    1  LIG1        0.0087
     11 C          -0.8385    1.5448    0.2968 C.ar    1  LIG1       -0.0160
     12 C          -4.5123    0.5562   -0.1349 C.ar    1  LIG1       -0.0345
     13 C          -2.9279   -2.3275    0.9079 C.ar    1  LIG1        0.2399
     14 C          -2.9586    2.5035    1.0911 C.ar    1  LIG1       -0.0521
     15 C          -3.9784   -3.1992    0.7185 C.ar    1  LIG1        0.0350
     16 C          -0.0211    0.7590    1.1207 C.ar    1  LIG1       -0.0533
     17 C          -0.2225    2.4563   -0.5745 C.ar    1  LIG1       -0.0533
     18 C          -5.1271    1.5805    0.5816 C.ar    1  LIG1       -0.0599
     19 C          -4.3500    2.5534    1.1967 C.ar    1  LIG1       -0.0611
     20 C           1.9887    1.7401    0.1463 C.ar    1  LIG1        0.0369
     21 C          -4.6849   -3.1419    1.9532 C.ar    1  LIG1        0.0854
     22 C           1.3758    0.8419    1.0322 C.ar    1  LIG1       -0.0489
     23 C           1.1704    2.5565   -0.6439 C.ar    1  LIG1       -0.0489
     24 C          -4.3046   -4.0323   -0.4622 C.3     1  LIG1       -0.0330
     25 C          -5.9315   -3.8507    2.3300 C.3     1  LIG1       -0.0188
     26 C           3.4402    1.8567    0.0326 C.ar    1  LIG1        0.2271
     27 C           5.4779    1.2170    0.3385 C.ar    1  LIG1        0.1125
     28 C           5.4540    2.3766   -0.3923 C.ar    1  LIG1        0.0663
     29 H          -1.0690   -1.6145    0.3998 H       1  LIG1        0.1768
     30 H          -5.1391   -0.1944   -0.6137 H       1  LIG1        0.0637
     31 H          -2.3724    3.2847    1.5758 H       1  LIG1        0.0624
     32 H          -0.4618    0.0869    1.8540 H       1  LIG1        0.0624
     33 H          -0.8271    3.0976   -1.2136 H       1  LIG1        0.0624
     34 H          -6.2110    1.6193    0.6570 H       1  LIG1        0.0618
     35 H          -4.8232    3.3574    1.7551 H       1  LIG1        0.0618
     36 H           1.9834    0.2080    1.6751 H       1  LIG1        0.0625
     37 H           1.6168    3.2736   -1.3316 H       1  LIG1        0.0625
     38 H          -3.4701   -4.0827   -1.1678 H       1  LIG1        0.0280
     39 H          -5.1802   -3.6351   -0.9841 H       1  LIG1        0.0280
     40 H          -4.5279   -5.0590   -0.1521 H       1  LIG1        0.0280
     41 H          -6.4083   -3.3902    3.2015 H       1  LIG1        0.0294
     42 H          -5.7161   -4.8967    2.5699 H       1  LIG1        0.0294
     43 H          -6.6530   -3.8284    1.5066 H       1  LIG1        0.0294
     44 H           6.2501    0.5603    0.7098 H       1  LIG1        0.1046
     45 H           6.2892    2.9376   -0.7876 H       1  LIG1        0.0862
@<TRIPOS>BOND
     1     1     3    2
     2     1     4    2
     3     1     6    1
     4     1     9    1
     5     2     7   ar
     6     2    13   ar
     7     5    26   ar
     8     5    27   ar
     9     6    13    1
    10     7    21   ar
    11     8    26   ar
    12     8    28   ar
    13     9    10   ar
    14     9    12   ar
    15    10    11    1
    16    10    14   ar
    17    11    16   ar
    18    11    17   ar
    19    12    18   ar
    20    13    15   ar
    21    14    19   ar
    22    15    21   ar
    23    15    24    1
    24    16    22   ar
    25    17    23   ar
    26    18    19   ar
    27    20    22   ar
    28    20    23   ar
    29    20    26    1
    30    21    25    1
    31    27    28   ar
    32     6    29    1
    33    12    30    1
    34    14    31    1
    35    16    32    1
    36    17    33    1
    37    18    34    1
    38    19    35    1
    39    22    36    1
    40    23    37    1
    41    24    38    1
    42    24    39    1
    43    24    40    1
    44    25    41    1
    45    25    42    1
    46    25    43    1
    47    27    44    1
    48    28    45    1
@<TRIPOS>MOLECULE
9843631
 45 48 0 0 0
SMALL
GASTEIGER

@<TRIPOS>ATOM
      1 S          -2.3434   -1.0131   -0.9131 S.O2    1  LIG1        0.0752
      2 O          -3.7174    0.8547   -3.5777 O.2     1  LIG1       -0.3377
      3 O          -1.0473   -1.1956   -0.3048 O.2     1  LIG1       -0.1499
      4 O          -3.3363   -2.0633   -0.8129 O.2     1  LIG1       -0.1499
      5 O           4.1300    1.9382    1.1183 O.2     1  LIG1       -0.4436
      6 N          -2.0820   -0.6560   -2.5595 N.pl3   1  LIG1       -0.1831
      7 N          -4.9267    0.7767   -4.2414 N.ar    1  LIG1       -0.0810
      8 N           4.2456    2.0196   -1.1354 N.ar    1  LIG1       -0.2175
      9 C          -3.0701    0.4965   -0.2780 C.ar    1  LIG1        0.1162
     10 C          -2.2989    1.6141    0.1051 C.ar    1  LIG1        0.0087
     11 C          -0.8337    1.6965    0.0446 C.ar    1  LIG1       -0.0160
     12 C          -4.4702    0.5113   -0.1314 C.ar    1  LIG1       -0.0345
     13 C          -3.2850   -0.3955   -3.2681 C.ar    1  LIG1        0.2399
     14 C          -2.9868    2.7376    0.6124 C.ar    1  LIG1       -0.0521
     15 C          -4.1488   -1.3259   -3.8038 C.ar    1  LIG1        0.0350
     16 C          -0.1607    1.9995   -1.1466 C.ar    1  LIG1       -0.0533
     17 C          -0.0728    1.5249    1.2116 C.ar    1  LIG1       -0.0533
     18 C          -5.1182    1.6361    0.3734 C.ar    1  LIG1       -0.0599
     19 C          -4.3767    2.7506    0.7437 C.ar    1  LIG1       -0.0611
     20 C           1.9987    1.8744   -0.0151 C.ar    1  LIG1        0.0369
     21 C          -5.1796   -0.5304   -4.3789 C.ar    1  LIG1        0.0854
     22 C           1.2386    2.0666   -1.1785 C.ar    1  LIG1       -0.0489
     23 C           1.3231    1.6163    1.1838 C.ar    1  LIG1       -0.0489
     24 C          -4.0395   -2.8030   -3.8181 C.3     1  LIG1       -0.0330
     25 C          -6.4012   -0.9846   -5.0855 C.3     1  LIG1       -0.0188
     26 C           3.4565    1.9436   -0.0784 C.ar    1  LIG1        0.2271
     27 C           5.4426    2.0067    0.7646 C.ar    1  LIG1        0.1125
     28 C           5.5100    2.0477   -0.6039 C.ar    1  LIG1        0.0663
     29 H          -1.4290    0.1247   -2.6002 H       1  LIG1        0.1768
     30 H          -5.0691   -0.3536   -0.4130 H       1  LIG1        0.0637
     31 H          -2.4278    3.6221    0.9188 H       1  LIG1        0.0624
     32 H          -0.7148    2.2020   -2.0598 H       1  LIG1        0.0624
     33 H          -0.5655    1.3083    2.1583 H       1  LIG1        0.0624
     34 H          -6.2005    1.6404    0.4780 H       1  LIG1        0.0618
     35 H          -4.8766    3.6311    1.1408 H       1  LIG1        0.0618
     36 H           1.7412    2.2805   -2.1211 H       1  LIG1        0.0625
     37 H           1.8754    1.4691    2.1096 H       1  LIG1        0.0625
     38 H          -3.0701   -3.1451   -3.4433 H       1  LIG1        0.0280
     39 H          -4.1449   -3.1793   -4.8415 H       1  LIG1        0.0280
     40 H          -4.8253   -3.2539   -3.2048 H       1  LIG1        0.0280
     41 H          -7.1376   -0.1796   -5.1752 H       1  LIG1        0.0294
     42 H          -6.8753   -1.8111   -4.5459 H       1  LIG1        0.0294
     43 H          -6.1494   -1.3315   -6.0928 H       1  LIG1        0.0294
     44 H           6.1617    2.0132    1.5700 H       1  LIG1        0.1046
     45 H           6.3906    2.0967   -1.2292 H       1  LIG1        0.0862
@<TRIPOS>BOND
     1     1     3    2
     2     1     4    2
     3     1     6    1
     4     1     9    1
     5     2     7   ar
     6     2    13   ar
     7     5    26   ar
     8     5    27   ar
     9     6    13    1
    10     7    21   ar
    11     8    26   ar
    12     8    28   ar
    13     9    10   ar
    14     9    12   ar
    15    10    11    1
    16    10    14   ar
    17    11    16   ar
    18    11    17   ar
    19    12    18   ar
    20    13    15   ar
    21    14    19   ar
    22    15    21   ar
    23    15    24    1
    24    16    22   ar
    25    17    23   ar
    26    18    19   ar
    27    20    22   ar
    28    20    23   ar
    29    20    26    1
    30    21    25    1
    31    27    28   ar
    32     6    29    1
    33    12    30    1
    34    14    31    1
    35    16    32    1
    36    17    33    1
    37    18    34    1
    38    19    35    1
    39    22    36    1
    40    23    37    1
    41    24    38    1
    42    24    39    1
    43    24    40    1
    44    25    41    1
    45    25    42    1
    46    25    43    1
    47    27    44    1
    48    28    45    1
@<TRIPOS>MOLECULE
9843631
 45 48 0 0 0
SMALL
GASTEIGER

@<TRIPOS>ATOM
      1 S          -2.4072   -0.8249   -1.2284 S.O2    1  LIG1        0.0752
      2 O          -2.8799   -1.8781    2.1482 O.2     1  LIG1       -0.3377
      3 O          -3.4859   -1.4076   -2.0020 O.2     1  LIG1       -0.1499
      4 O          -1.2229   -0.3341   -1.9036 O.2     1  LIG1       -0.1499
      5 O           3.9673    3.0248   -0.5098 O.2     1  LIG1       -0.4436
      6 N          -1.8870   -1.9718   -0.0823 N.pl3   1  LIG1       -0.1831
      7 N          -3.9978   -2.3519    2.8078 N.ar    1  LIG1       -0.0810
      8 N           4.3636    1.0286    0.4687 N.ar    1  LIG1       -0.2175
      9 C          -3.0941    0.5000   -0.2372 C.ar    1  LIG1        0.1162
     10 C          -2.2959    1.4840    0.3806 C.ar    1  LIG1        0.0087
     11 C          -0.8309    1.5662    0.2984 C.ar    1  LIG1       -0.0160
     12 C          -4.4978    0.5490   -0.1336 C.ar    1  LIG1       -0.0345
     13 C          -2.8824   -2.3253    0.8641 C.ar    1  LIG1        0.2399
     14 C          -2.9570    2.4896    1.1181 C.ar    1  LIG1       -0.0521
     15 C          -3.9432   -3.1867    0.6823 C.ar    1  LIG1        0.0350
     16 C          -0.0005    0.7539    1.0816 C.ar    1  LIG1       -0.0533
     17 C          -0.2294    2.5193   -0.5387 C.ar    1  LIG1       -0.0533
     18 C          -5.1189    1.5560    0.6017 C.ar    1  LIG1       -0.0599
     19 C          -4.3482    2.5252    1.2300 C.ar    1  LIG1       -0.0611
     20 C           1.9933    1.7984    0.1374 C.ar    1  LIG1        0.0369
     21 C          -4.6314   -3.1354    1.9266 C.ar    1  LIG1        0.0854
     22 C           1.3941    0.8540    0.9837 C.ar    1  LIG1       -0.0489
     23 C           1.1620    2.6379   -0.6144 C.ar    1  LIG1       -0.0489
     24 C          -4.2908   -4.0055   -0.5018 C.3     1  LIG1       -0.0330
     25 C          -5.8778   -3.8375    2.3144 C.3     1  LIG1       -0.0188
     26 C           3.4482    1.8864    0.0559 C.ar    1  LIG1        0.2271
     27 C           5.3158    2.8450   -0.4467 C.ar    1  LIG1        0.1125
     28 C           5.5525    1.6267    0.1355 C.ar    1  LIG1        0.0663
     29 H          -1.0238   -1.6234    0.3325 H       1  LIG1        0.1768
     30 H          -5.1197   -0.1989   -0.6223 H       1  LIG1        0.0637
     31 H          -2.3761    3.2677    1.6145 H       1  LIG1        0.0624
     32 H          -0.4271    0.0469    1.7901 H       1  LIG1        0.0624
     33 H          -0.8453    3.1786   -1.1466 H       1  LIG1        0.0624
     34 H          -6.2031    1.5837    0.6818 H       1  LIG1        0.0618
     35 H          -4.8265    3.3154    1.8043 H       1  LIG1        0.0618
     36 H           2.0206    0.1972    1.5872 H       1  LIG1        0.0625
     37 H           1.5894    3.3870   -1.2793 H       1  LIG1        0.0625
     38 H          -3.4658   -4.0572   -1.2179 H       1  LIG1        0.0280
     39 H          -5.1695   -3.5944   -1.0100 H       1  LIG1        0.0280
     40 H          -4.5206   -5.0321   -0.1986 H       1  LIG1        0.0280
     41 H          -6.3463   -3.3716    3.1886 H       1  LIG1        0.0294
     42 H          -5.6659   -4.8833    2.5560 H       1  LIG1        0.0294
     43 H          -6.6056   -3.8131    1.4968 H       1  LIG1        0.0294
     44 H           5.9294    3.6389   -0.8437 H       1  LIG1        0.1046
     45 H           6.5047    1.1540    0.3347 H       1  LIG1        0.0862
@<TRIPOS>BOND
     1     1     3    2
     2     1     4    2
     3     1     6    1
     4     1     9    1
     5     2     7   ar
     6     2    13   ar
     7     5    26   ar
     8     5    27   ar
     9     6    13    1
    10     7    21   ar
    11     8    26   ar
    12     8    28   ar
    13     9    10   ar
    14     9    12   ar
    15    10    11    1
    16    10    14   ar
    17    11    16   ar
    18    11    17   ar
    19    12    18   ar
    20    13    15   ar
    21    14    19   ar
    22    15    21   ar
    23    15    24    1
    24    16    22   ar
    25    17    23   ar
    26    18    19   ar
    27    20    22   ar
    28    20    23   ar
    29    20    26    1
    30    21    25    1
    31    27    28   ar
    32     6    29    1
    33    12    30    1
    34    14    31    1
    35    16    32    1
    36    17    33    1
    37    18    34    1
    38    19    35    1
    39    22    36    1
    40    23    37    1
    41    24    38    1
    42    24    39    1
    43    24    40    1
    44    25    41    1
    45    25    42    1
    46    25    43    1
    47    27    44    1
    48    28    45    1
@<TRIPOS>MOLECULE
9843631
 45 48 0 0 0
SMALL
GASTEIGER

@<TRIPOS>ATOM
      1 S          -2.4349   -0.9667   -0.8909 S.O2    1  LIG1        0.0752
      2 O          -3.0229    1.4554   -3.5224 O.2     1  LIG1       -0.3377
      3 O          -1.1427   -1.2151   -0.2907 O.2     1  LIG1       -0.1499
      4 O          -3.4645   -1.9860   -0.8345 O.2     1  LIG1       -0.1499
      5 O           4.0389    1.6819   -1.3349 O.2     1  LIG1       -0.4436
      6 N          -2.1528   -0.5923   -2.5256 N.pl3   1  LIG1       -0.1831
      7 N          -4.2067    1.9436   -4.0360 N.ar    1  LIG1       -0.0810
      8 N           4.2960    2.1154    0.8666 N.ar    1  LIG1       -0.2175
      9 C          -3.1127    0.5373   -0.1926 C.ar    1  LIG1        0.1162
     10 C          -2.3113    1.6409    0.1667 C.ar    1  LIG1        0.0087
     11 C          -0.8467    1.7009    0.0587 C.ar    1  LIG1       -0.0160
     12 C          -4.5039    0.5625    0.0228 C.ar    1  LIG1       -0.0345
     13 C          -3.1821    0.1572   -3.1519 C.ar    1  LIG1        0.2399
     14 C          -2.9663    2.7678    0.7081 C.ar    1  LIG1       -0.0521
     15 C          -4.4384   -0.2701   -3.5218 C.ar    1  LIG1        0.0350
     16 C          -0.0579    1.5933    1.2152 C.ar    1  LIG1       -0.0533
     17 C          -0.1991    1.9254   -1.1635 C.ar    1  LIG1       -0.0533
     18 C          -5.1181    1.6895    0.5622 C.ar    1  LIG1       -0.0599
     19 C          -4.3492    2.7952    0.9003 C.ar    1  LIG1       -0.0611
     20 C           1.9841    1.8495   -0.0803 C.ar    1  LIG1        0.0369
     21 C          -5.0556    0.9099   -4.0298 C.ar    1  LIG1        0.0854
     22 C           1.3362    1.6764    1.1480 C.ar    1  LIG1       -0.0489
     23 C           1.2003    1.9764   -1.2356 C.ar    1  LIG1       -0.0489
     24 C          -5.0344   -1.6246   -3.4453 C.3     1  LIG1       -0.0330
     25 C          -6.4396    1.0816   -4.5328 C.3     1  LIG1       -0.0188
     26 C           3.4425    1.9073   -0.1194 C.ar    1  LIG1        0.2271
     27 C           5.3728    1.7522   -1.0685 C.ar    1  LIG1        0.1125
     28 C           5.5254    2.0270    0.2660 C.ar    1  LIG1        0.0663
     29 H          -1.2266   -0.1723   -2.5951 H       1  LIG1        0.1768
     30 H          -5.1228   -0.2966   -0.2311 H       1  LIG1        0.0637
     31 H          -2.3853    3.6451    0.9941 H       1  LIG1        0.0624
     32 H          -0.5271    1.4420    2.1859 H       1  LIG1        0.0624
     33 H          -0.7754    2.0838   -2.0718 H       1  LIG1        0.0624
     34 H          -6.1935    1.7027    0.7200 H       1  LIG1        0.0618
     35 H          -4.8205    3.6791    1.3229 H       1  LIG1        0.0618
     36 H           1.9184    1.5924    2.0645 H       1  LIG1        0.0625
     37 H           1.6736    2.1366   -2.2026 H       1  LIG1        0.0625
     38 H          -4.2647   -2.3994   -3.3784 H       1  LIG1        0.0280
     39 H          -5.6244   -1.8352   -4.3440 H       1  LIG1        0.0280
     40 H          -5.6957   -1.7071   -2.5779 H       1  LIG1        0.0280
     41 H          -6.7333    2.1364   -4.5478 H       1  LIG1        0.0294
     42 H          -7.1513    0.5487   -3.8938 H       1  LIG1        0.0294
     43 H          -6.5269    0.6863   -5.5493 H       1  LIG1        0.0294
     44 H           6.0422    1.5890   -1.8995 H       1  LIG1        0.1046
     45 H           6.4427    2.1588    0.8228 H       1  LIG1        0.0862
@<TRIPOS>BOND
     1     1     3    2
     2     1     4    2
     3     1     6    1
     4     1     9    1
     5     2     7   ar
     6     2    13   ar
     7     5    26   ar
     8     5    27   ar
     9     6    13    1
    10     7    21   ar
    11     8    26   ar
    12     8    28   ar
    13     9    10   ar
    14     9    12   ar
    15    10    11    1
    16    10    14   ar
    17    11    16   ar
    18    11    17   ar
    19    12    18   ar
    20    13    15   ar
    21    14    19   ar
    22    15    21   ar
    23    15    24    1
    24    16    22   ar
    25    17    23   ar
    26    18    19   ar
    27    20    22   ar
    28    20    23   ar
    29    20    26    1
    30    21    25    1
    31    27    28   ar
    32     6    29    1
    33    12    30    1
    34    14    31    1
    35    16    32    1
    36    17    33    1
    37    18    34    1
    38    19    35    1
    39    22    36    1
    40    23    37    1
    41    24    38    1
    42    24    39    1
    43    24    40    1
    44    25    41    1
    45    25    42    1
    46    25    43    1
    47    27    44    1
    48    28    45    1
@<TRIPOS>MOLECULE
9843631
 45 48 0 0 0
SMALL
GASTEIGER

@<TRIPOS>ATOM
      1 S          -2.4582   -0.8896   -1.1529 S.O2    1  LIG1        0.0752
      2 O          -0.5536   -0.7508   -4.1785 O.2     1  LIG1       -0.3377
      3 O          -1.0913   -1.1191   -0.7480 O.2     1  LIG1       -0.1499
      4 O          -3.4559   -1.9308   -1.0136 O.2     1  LIG1       -0.1499
      5 O           4.1390    1.6244   -1.2298 O.2     1  LIG1       -0.4436
      6 N          -2.4905   -0.3331   -2.7633 N.pl3   1  LIG1       -0.1831
      7 N          -0.0719   -1.7221   -5.0312 N.ar    1  LIG1       -0.0810
      8 N           4.3450    2.1589    0.9549 N.ar    1  LIG1       -0.2175
      9 C          -3.0808    0.5750   -0.3283 C.ar    1  LIG1        0.1162
     10 C          -2.2562    1.6285    0.1195 C.ar    1  LIG1        0.0087
     11 C          -0.7844    1.6764    0.0417 C.ar    1  LIG1       -0.0160
     12 C          -4.4775    0.6257   -0.1425 C.ar    1  LIG1       -0.0345
     13 C          -1.7333   -1.1568   -3.6393 C.ar    1  LIG1        0.2399
     14 C          -2.8991    2.7317    0.7267 C.ar    1  LIG1       -0.0521
     15 C          -2.0897   -2.3741   -4.1756 C.ar    1  LIG1        0.0350
     16 C          -0.0976    1.8231   -1.1717 C.ar    1  LIG1       -0.0533
     17 C          -0.0225    1.6461    1.2226 C.ar    1  LIG1       -0.0533
     18 C          -5.0741    1.7249    0.4698 C.ar    1  LIG1       -0.0599
     19 C          -4.2847    2.7819    0.8990 C.ar    1  LIG1       -0.0611
     20 C           2.0567    1.8266   -0.0282 C.ar    1  LIG1        0.0369
     21 C          -0.9914   -2.6935   -5.0253 C.ar    1  LIG1        0.0854
     22 C           1.3038    1.8696   -1.2089 C.ar    1  LIG1       -0.0489
     23 C           1.3738    1.7328    1.1888 C.ar    1  LIG1       -0.0489
     24 C          -3.3295   -3.1604   -3.9825 C.3     1  LIG1       -0.0330
     25 C          -0.8068   -3.8918   -5.8775 C.3     1  LIG1       -0.0188
     26 C           3.5144    1.8927   -0.0375 C.ar    1  LIG1        0.2271
     27 C           5.4659    1.7248   -0.9415 C.ar    1  LIG1        0.1125
     28 C           5.5878    2.0608    0.3818 C.ar    1  LIG1        0.0663
     29 H          -2.1244    0.6149   -2.7883 H       1  LIG1        0.1768
     30 H          -5.1130   -0.1941   -0.4752 H       1  LIG1        0.0637
     31 H          -2.3056    3.5751    1.0817 H       1  LIG1        0.0624
     32 H          -0.6302    1.9146   -2.1108 H       1  LIG1        0.0624
     33 H          -0.5148    1.5577    2.1897 H       1  LIG1        0.0624
     34 H          -6.1520    1.7532    0.6110 H       1  LIG1        0.0618
     35 H          -4.7410    3.6457    1.3770 H       1  LIG1        0.0618
     36 H           1.8014    1.9521   -2.1732 H       1  LIG1        0.0625
     37 H           1.9312    1.7141    2.1250 H       1  LIG1        0.0625
     38 H          -4.1226   -2.5662   -3.5198 H       1  LIG1        0.0280
     39 H          -3.1363   -4.0345   -3.3544 H       1  LIG1        0.0280
     40 H          -3.7126   -3.5100   -4.9478 H       1  LIG1        0.0280
     41 H           0.2290   -3.9849   -6.2207 H       1  LIG1        0.0294
     42 H          -1.4530   -3.8311   -6.7588 H       1  LIG1        0.0294
     43 H          -1.0596   -4.8022   -5.3252 H       1  LIG1        0.0294
     44 H           6.1529    1.5351   -1.7522 H       1  LIG1        0.1046
     45 H           6.4918    2.2308    0.9493 H       1  LIG1        0.0862
@<TRIPOS>BOND
     1     1     3    2
     2     1     4    2
     3     1     6    1
     4     1     9    1
     5     2     7   ar
     6     2    13   ar
     7     5    26   ar
     8     5    27   ar
     9     6    13    1
    10     7    21   ar
    11     8    26   ar
    12     8    28   ar
    13     9    10   ar
    14     9    12   ar
    15    10    11    1
    16    10    14   ar
    17    11    16   ar
    18    11    17   ar
    19    12    18   ar
    20    13    15   ar
    21    14    19   ar
    22    15    21   ar
    23    15    24    1
    24    16    22   ar
    25    17    23   ar
    26    18    19   ar
    27    20    22   ar
    28    20    23   ar
    29    20    26    1
    30    21    25    1
    31    27    28   ar
    32     6    29    1
    33    12    30    1
    34    14    31    1
    35    16    32    1
    36    17    33    1
    37    18    34    1
    38    19    35    1
    39    22    36    1
    40    23    37    1
    41    24    38    1
    42    24    39    1
    43    24    40    1
    44    25    41    1
    45    25    42    1
    46    25    43    1
    47    27    44    1
    48    28    45    1
@<TRIPOS>MOLECULE
9843631
 45 48 0 0 0
SMALL
GASTEIGER

@<TRIPOS>ATOM
      1 S          -2.3792   -0.9558   -0.8134 S.O2    1  LIG1        0.0752
      2 O          -1.2951   -2.4142   -3.3416 O.2     1  LIG1       -0.3377
      3 O          -0.9635   -1.0863   -0.5599 O.2     1  LIG1       -0.1499
      4 O          -3.3050   -2.0122   -0.4533 O.2     1  LIG1       -0.1499
      5 O           4.2044    2.5082    0.9377 O.2     1  LIG1       -0.4436
      6 N          -2.6661   -0.5762   -2.4403 N.pl3   1  LIG1       -0.1831
      7 N          -1.3814   -3.3545   -4.3534 N.ar    1  LIG1       -0.0810
      8 N           4.3183    1.7600   -1.1894 N.ar    1  LIG1       -0.2175
      9 C          -3.0143    0.5490   -0.0767 C.ar    1  LIG1        0.1162
     10 C          -2.2166    1.6653    0.2363 C.ar    1  LIG1        0.0087
     11 C          -0.7518    1.7471    0.1070 C.ar    1  LIG1       -0.0160
     12 C          -4.4077    0.5716    0.1543 C.ar    1  LIG1       -0.0345
     13 C          -2.4290   -1.6664   -3.3157 C.ar    1  LIG1        0.2399
     14 C          -2.8806    2.8029    0.7518 C.ar    1  LIG1       -0.0521
     15 C          -3.3013   -2.1177   -4.2839 C.ar    1  LIG1        0.0350
     16 C           0.0381    1.9077    1.2586 C.ar    1  LIG1       -0.0533
     17 C          -0.1016    1.7162   -1.1343 C.ar    1  LIG1       -0.0533
     18 C          -5.0254    1.7070    0.6711 C.ar    1  LIG1       -0.0599
     19 C          -4.2617    2.8263    0.9629 C.ar    1  LIG1       -0.0611
     20 C           2.0783    1.9596   -0.0618 C.ar    1  LIG1        0.0369
     21 C          -2.5855   -3.1785   -4.9076 C.ar    1  LIG1        0.0854
     22 C           1.4296    2.0195    1.1769 C.ar    1  LIG1       -0.0489
     23 C           1.2958    1.8012   -1.2141 C.ar    1  LIG1       -0.0489
     24 C          -4.6829   -1.6816   -4.5904 C.3     1  LIG1       -0.0330
     25 C          -3.0314   -4.0605   -6.0120 C.3     1  LIG1       -0.0188
     26 C           3.5305    2.0452   -0.1684 C.ar    1  LIG1        0.2271
     27 C           5.5122    2.4910    0.5663 C.ar    1  LIG1        0.1125
     28 C           5.5802    2.0211   -0.7202 C.ar    1  LIG1        0.0663
     29 H          -3.5535   -0.1021   -2.5694 H       1  LIG1        0.1768
     30 H          -5.0228   -0.3000   -0.0651 H       1  LIG1        0.0637
     31 H          -2.3069    3.6963    0.9991 H       1  LIG1        0.0624
     32 H          -0.4291    1.9395    2.2416 H       1  LIG1        0.0624
     33 H          -0.6681    1.5984   -2.0551 H       1  LIG1        0.0624
     34 H          -6.0985    1.7146    0.8474 H       1  LIG1        0.0618
     35 H          -4.7322    3.7191    1.3665 H       1  LIG1        0.0618
     36 H           2.0015    2.1353    2.0950 H       1  LIG1        0.0625
     37 H           1.7757    1.7360   -2.1896 H       1  LIG1        0.0625
     38 H          -4.9931   -0.8247   -3.9855 H       1  LIG1        0.0280
     39 H          -5.3860   -2.4975   -4.3888 H       1  LIG1        0.0280
     40 H          -4.7767   -1.3997   -5.6435 H       1  LIG1        0.0280
     41 H          -2.1848   -4.5532   -6.5005 H       1  LIG1        0.0294
     42 H          -3.5679   -3.4867   -6.7745 H       1  LIG1        0.0294
     43 H          -3.7040   -4.8337   -5.6280 H       1  LIG1        0.0294
     44 H           6.2295    2.8237    1.3011 H       1  LIG1        0.1046
     45 H           6.4592    1.8627   -1.3302 H       1  LIG1        0.0862
@<TRIPOS>BOND
     1     1     3    2
     2     1     4    2
     3     1     6    1
     4     1     9    1
     5     2     7   ar
     6     2    13   ar
     7     5    26   ar
     8     5    27   ar
     9     6    13    1
    10     7    21   ar
    11     8    26   ar
    12     8    28   ar
    13     9    10   ar
    14     9    12   ar
    15    10    11    1
    16    10    14   ar
    17    11    16   ar
    18    11    17   ar
    19    12    18   ar
    20    13    15   ar
    21    14    19   ar
    22    15    21   ar
    23    15    24    1
    24    16    22   ar
    25    17    23   ar
    26    18    19   ar
    27    20    22   ar
    28    20    23   ar
    29    20    26    1
    30    21    25    1
    31    27    28   ar
    32     6    29    1
    33    12    30    1
    34    14    31    1
    35    16    32    1
    36    17    33    1
    37    18    34    1
    38    19    35    1
    39    22    36    1
    40    23    37    1
    41    24    38    1
    42    24    39    1
    43    24    40    1
    44    25    41    1
    45    25    42    1
    46    25    43    1
    47    27    44    1
    48    28    45    1
@<TRIPOS>MOLECULE
9843631
 45 48 0 0 0
SMALL
GASTEIGER

@<TRIPOS>ATOM
      1 S          -2.5625   -0.5676   -1.3466 S.O2    1  LIG1        0.0752
      2 O          -4.2549   -2.1799    0.7335 O.2     1  LIG1       -0.3377
      3 O          -3.6874   -1.0050   -2.1552 O.2     1  LIG1       -0.1499
      4 O          -1.3606   -0.1035   -2.0115 O.2     1  LIG1       -0.1499
      5 O           4.2016    0.7164    0.2887 O.2     1  LIG1       -0.4436
      6 N          -2.0865   -1.8621   -0.3694 N.pl3   1  LIG1       -0.1831
      7 N          -5.0869   -3.2164    1.0988 N.ar    1  LIG1       -0.0810
      8 N           4.2123    2.8612   -0.4195 N.ar    1  LIG1       -0.2175
      9 C          -3.1305    0.6793   -0.2079 C.ar    1  LIG1        0.1162
     10 C          -2.2699    1.5937    0.4284 C.ar    1  LIG1        0.0087
     11 C          -0.8058    1.6156    0.3037 C.ar    1  LIG1       -0.0160
     12 C          -4.5276    0.7874   -0.0499 C.ar    1  LIG1       -0.0345
     13 C          -3.1461   -2.6664    0.1163 C.ar    1  LIG1        0.2399
     14 C          -2.8667    2.5896    1.2371 C.ar    1  LIG1       -0.0521
     15 C          -3.2265   -4.0417    0.0585 C.ar    1  LIG1        0.0350
     16 C          -0.1731    2.6822   -0.3550 C.ar    1  LIG1       -0.0533
     17 C          -0.0009    0.6229    0.8781 C.ar    1  LIG1       -0.0533
     18 C          -5.0829    1.7777    0.7542 C.ar    1  LIG1       -0.0599
     19 C          -4.2511    2.6815    1.3989 C.ar    1  LIG1       -0.0611
     20 C           2.0239    1.7446    0.1049 C.ar    1  LIG1        0.0369
     21 C          -4.4798   -4.3290    0.6761 C.ar    1  LIG1        0.0854
     22 C           1.2201    2.7487   -0.4481 C.ar    1  LIG1       -0.0489
     23 C           1.3969    0.6811    0.7702 C.ar    1  LIG1       -0.0489
     24 C          -2.3049   -5.0146   -0.5703 C.3     1  LIG1       -0.0330
     25 C          -5.1458   -5.6426    0.8487 C.3     1  LIG1       -0.0188
     26 C           3.4755    1.8396   -0.0211 C.ar    1  LIG1        0.2271
     27 C           5.4938    1.0803    0.0542 C.ar    1  LIG1        0.1125
     28 C           5.4978    2.3843   -0.3677 C.ar    1  LIG1        0.0663
     29 H          -1.2442   -2.2995   -0.7294 H       1  LIG1        0.1768
     30 H          -5.1993    0.0942   -0.5575 H       1  LIG1        0.0637
     31 H          -2.2376    3.3165    1.7504 H       1  LIG1        0.0624
     32 H          -0.7664    3.4757   -0.8074 H       1  LIG1        0.0624
     33 H          -0.4525   -0.2021    1.4241 H       1  LIG1        0.0624
     34 H          -6.1620    1.8441    0.8693 H       1  LIG1        0.0618
     35 H          -4.6749    3.4637    2.0227 H       1  LIG1        0.0618
     36 H           1.6782    3.5908   -0.9659 H       1  LIG1        0.0625
     37 H           1.9920   -0.1093    1.2232 H       1  LIG1        0.0625
     38 H          -1.3499   -4.5584   -0.8447 H       1  LIG1        0.0280
     39 H          -2.7569   -5.4222   -1.4809 H       1  LIG1        0.0280
     40 H          -2.0961   -5.8460    0.1093 H       1  LIG1        0.0280
     41 H          -5.9734   -5.5831    1.5628 H       1  LIG1        0.0294
     42 H          -4.4387   -6.3921    1.2168 H       1  LIG1        0.0294
     43 H          -5.5482   -5.9879   -0.1090 H       1  LIG1        0.0294
     44 H           6.2474    0.3285    0.2284 H       1  LIG1        0.1046
     45 H           6.3442    2.9990   -0.6387 H       1  LIG1        0.0862
@<TRIPOS>BOND
     1     1     3    2
     2     1     4    2
     3     1     6    1
     4     1     9    1
     5     2     7   ar
     6     2    13   ar
     7     5    26   ar
     8     5    27   ar
     9     6    13    1
    10     7    21   ar
    11     8    26   ar
    12     8    28   ar
    13     9    10   ar
    14     9    12   ar
    15    10    11    1
    16    10    14   ar
    17    11    16   ar
    18    11    17   ar
    19    12    18   ar
    20    13    15   ar
    21    14    19   ar
    22    15    21   ar
    23    15    24    1
    24    16    22   ar
    25    17    23   ar
    26    18    19   ar
    27    20    22   ar
    28    20    23   ar
    29    20    26    1
    30    21    25    1
    31    27    28   ar
    32     6    29    1
    33    12    30    1
    34    14    31    1
    35    16    32    1
    36    17    33    1
    37    18    34    1
    38    19    35    1
    39    22    36    1
    40    23    37    1
    41    24    38    1
    42    24    39    1
    43    24    40    1
    44    25    41    1
    45    25    42    1
    46    25    43    1
    47    27    44    1
    48    28    45    1
@<TRIPOS>MOLECULE
9843631
 45 48 0 0 0
SMALL
GASTEIGER

@<TRIPOS>ATOM
      1 S          -2.3928   -0.9276   -1.0884 S.O2    1  LIG1        0.0752
      2 O          -3.2331   -1.9131   -4.4434 O.2     1  LIG1       -0.3377
      3 O          -1.0190   -1.1412   -0.6988 O.2     1  LIG1       -0.1499
      4 O          -3.3795   -1.9773   -0.9313 O.2     1  LIG1       -0.1499
      5 O           4.1547    2.5097    0.9201 O.2     1  LIG1       -0.4436
      6 N          -2.4818   -0.3866   -2.7037 N.pl3   1  LIG1       -0.1831
      7 N          -2.7220   -2.8699   -5.2943 N.ar    1  LIG1       -0.0810
      8 N           4.3005    1.7050   -1.1853 N.ar    1  LIG1       -0.2175
      9 C          -3.0465    0.5259   -0.2690 C.ar    1  LIG1        0.1162
     10 C          -2.2516    1.6149    0.1401 C.ar    1  LIG1        0.0087
     11 C          -0.7845    1.7034    0.0341 C.ar    1  LIG1       -0.0160
     12 C          -4.4422    0.5368   -0.0563 C.ar    1  LIG1       -0.0345
     13 C          -2.2444   -1.4286   -3.6451 C.ar    1  LIG1        0.2399
     14 C          -2.9208    2.7135    0.7280 C.ar    1  LIG1       -0.0521
     15 C          -1.0466   -2.0120   -3.9950 C.ar    1  LIG1        0.0350
     16 C          -0.0067    1.8067    1.2011 C.ar    1  LIG1       -0.0533
     17 C          -0.1208    1.7407   -1.1992 C.ar    1  LIG1       -0.0533
     18 C          -5.0658    1.6314    0.5352 C.ar    1  LIG1       -0.0599
     19 C          -4.3056    2.7255    0.9216 C.ar    1  LIG1       -0.0611
     20 C           2.0464    1.9278   -0.0937 C.ar    1  LIG1        0.0369
     21 C          -1.4132   -2.9271   -5.0249 C.ar    1  LIG1        0.0854
     22 C           1.3857    1.9265    1.1395 C.ar    1  LIG1       -0.0489
     23 C           1.2771    1.8294   -1.2607 C.ar    1  LIG1       -0.0489
     24 C           0.3174   -1.7455   -3.4854 C.3     1  LIG1       -0.0330
     25 C          -0.5388   -3.8404   -5.7979 C.3     1  LIG1       -0.0188
     26 C           3.5001    2.0159   -0.1816 C.ar    1  LIG1        0.2271
     27 C           5.4685    2.4910    0.5643 C.ar    1  LIG1        0.1125
     28 C           5.5552    1.9876   -0.7078 C.ar    1  LIG1        0.0663
     29 H          -3.4272   -0.0320   -2.8586 H       1  LIG1        0.1768
     30 H          -5.0581   -0.3130   -0.3495 H       1  LIG1        0.0637
     31 H          -2.3510    3.5859    1.0465 H       1  LIG1        0.0624
     32 H          -0.4845    1.7905    2.1795 H       1  LIG1        0.0624
     33 H          -0.6787    1.6854   -2.1307 H       1  LIG1        0.0624
     34 H          -6.1417    1.6289    0.6947 H       1  LIG1        0.0618
     35 H          -4.7821    3.5877    1.3819 H       1  LIG1        0.0618
     36 H           1.9481    2.0006    2.0679 H       1  LIG1        0.0625
     37 H           1.7673    1.8229   -2.2330 H       1  LIG1        0.0625
     38 H           0.3749   -0.7890   -2.9606 H       1  LIG1        0.0280
     39 H           1.0328   -1.6999   -4.3137 H       1  LIG1        0.0280
     40 H           0.6340   -2.5401   -2.8034 H       1  LIG1        0.0280
     41 H          -1.1234   -4.5460   -6.3978 H       1  LIG1        0.0294
     42 H           0.1020   -4.4207   -5.1270 H       1  LIG1        0.0294
     43 H           0.1000   -3.2669   -6.4772 H       1  LIG1        0.0294
     44 H           6.1742    2.8495    1.2985 H       1  LIG1        0.1046
     45 H           6.4424    1.8190   -1.3016 H       1  LIG1        0.0862
@<TRIPOS>BOND
     1     1     3    2
     2     1     4    2
     3     1     6    1
     4     1     9    1
     5     2     7   ar
     6     2    13   ar
     7     5    26   ar
     8     5    27   ar
     9     6    13    1
    10     7    21   ar
    11     8    26   ar
    12     8    28   ar
    13     9    10   ar
    14     9    12   ar
    15    10    11    1
    16    10    14   ar
    17    11    16   ar
    18    11    17   ar
    19    12    18   ar
    20    13    15   ar
    21    14    19   ar
    22    15    21   ar
    23    15    24    1
    24    16    22   ar
    25    17    23   ar
    26    18    19   ar
    27    20    22   ar
    28    20    23   ar
    29    20    26    1
    30    21    25    1
    31    27    28   ar
    32     6    29    1
    33    12    30    1
    34    14    31    1
    35    16    32    1
    36    17    33    1
    37    18    34    1
    38    19    35    1
    39    22    36    1
    40    23    37    1
    41    24    38    1
    42    24    39    1
    43    24    40    1
    44    25    41    1
    45    25    42    1
    46    25    43    1
    47    27    44    1
    48    28    45    1
@<TRIPOS>MOLECULE
9843631
 45 48 0 0 0
SMALL
GASTEIGER

@<TRIPOS>ATOM
      1 S          -2.3824   -0.9356   -1.0821 S.O2    1  LIG1        0.0752
      2 O          -3.2694   -1.9420   -4.3956 O.2     1  LIG1       -0.3377
      3 O          -1.0088   -1.1522   -0.6965 O.2     1  LIG1       -0.1499
      4 O          -3.3723   -1.9858   -0.9270 O.2     1  LIG1       -0.1499
      5 O           4.1360    1.2203   -1.0639 O.2     1  LIG1       -0.4436
      6 N          -2.4721   -0.3906   -2.6987 N.pl3   1  LIG1       -0.1831
      7 N          -2.7760   -2.8898   -5.2668 N.ar    1  LIG1       -0.0810
      8 N           4.3444    2.5404    0.7578 N.ar    1  LIG1       -0.2175
      9 C          -3.0371    0.5205   -0.2626 C.ar    1  LIG1        0.1162
     10 C          -2.2471    1.6153    0.1448 C.ar    1  LIG1        0.0087
     11 C          -0.7774    1.7140    0.0476 C.ar    1  LIG1       -0.0160
     12 C          -4.4340    0.5238   -0.0534 C.ar    1  LIG1       -0.0345
     13 C          -2.2579   -1.4386   -3.6392 C.ar    1  LIG1        0.2399
     14 C          -2.9291    2.7107    0.7267 C.ar    1  LIG1       -0.0521
     15 C          -1.0652   -2.0030   -4.0348 C.ar    1  LIG1        0.0350
     16 C          -0.0132    1.9162    1.2112 C.ar    1  LIG1       -0.0533
     17 C          -0.0946    1.6603   -1.1752 C.ar    1  LIG1       -0.0533
     18 C          -5.0663    1.6155    0.5345 C.ar    1  LIG1       -0.0599
     19 C          -4.3134    2.7144    0.9183 C.ar    1  LIG1       -0.0611
     20 C           2.0578    1.8975   -0.0572 C.ar    1  LIG1        0.0369
     21 C          -1.4567   -2.9234   -5.0511 C.ar    1  LIG1        0.0854
     22 C           1.3804    2.0237    1.1589 C.ar    1  LIG1       -0.0489
     23 C           1.3058    1.7231   -1.2251 C.ar    1  LIG1       -0.0489
     24 C           0.3150   -1.7137   -3.5856 C.3     1  LIG1       -0.0330
     25 C          -0.5975   -3.8172   -5.8632 C.3     1  LIG1       -0.0188
     26 C           3.5138    1.9445   -0.0782 C.ar    1  LIG1        0.2271
     27 C           5.4632    1.3797   -0.8044 C.ar    1  LIG1        0.1125
     28 C           5.5864    2.1965    0.2898 C.ar    1  LIG1        0.0663
     29 H          -3.4171   -0.0297   -2.8433 H       1  LIG1        0.1768
     30 H          -5.0455   -0.3291   -0.3464 H       1  LIG1        0.0637
     31 H          -2.3678    3.5903    1.0445 H       1  LIG1        0.0624
     32 H          -0.5006    1.9862    2.1828 H       1  LIG1        0.0624
     33 H          -0.6394    1.5427   -2.1086 H       1  LIG1        0.0624
     34 H          -6.1422    1.6056    0.6922 H       1  LIG1        0.0618
     35 H          -4.7958    3.5748    1.3760 H       1  LIG1        0.0618
     36 H           1.9389    2.1805    2.0807 H       1  LIG1        0.0625
     37 H           1.8033    1.6322   -2.1884 H       1  LIG1        0.0625
     38 H           0.3607   -0.8386   -2.9344 H       1  LIG1        0.0280
     39 H           0.9584   -1.5070   -4.4484 H       1  LIG1        0.0280
     40 H           0.7302   -2.5699   -3.0462 H       1  LIG1        0.0280
     41 H          -1.1936   -4.5041   -6.4738 H       1  LIG1        0.0294
     42 H           0.0517   -4.4173   -5.2181 H       1  LIG1        0.0294
     43 H           0.0329   -3.2268   -6.5362 H       1  LIG1        0.0294
     44 H           6.1496    0.8668   -1.4615 H       1  LIG1        0.1046
     45 H           6.4927    2.5439    0.7672 H       1  LIG1        0.0862
@<TRIPOS>BOND
     1     1     3    2
     2     1     4    2
     3     1     6    1
     4     1     9    1
     5     2     7   ar
     6     2    13   ar
     7     5    26   ar
     8     5    27   ar
     9     6    13    1
    10     7    21   ar
    11     8    26   ar
    12     8    28   ar
    13     9    10   ar
    14     9    12   ar
    15    10    11    1
    16    10    14   ar
    17    11    16   ar
    18    11    17   ar
    19    12    18   ar
    20    13    15   ar
    21    14    19   ar
    22    15    21   ar
    23    15    24    1
    24    16    22   ar
    25    17    23   ar
    26    18    19   ar
    27    20    22   ar
    28    20    23   ar
    29    20    26    1
    30    21    25    1
    31    27    28   ar
    32     6    29    1
    33    12    30    1
    34    14    31    1
    35    16    32    1
    36    17    33    1
    37    18    34    1
    38    19    35    1
    39    22    36    1
    40    23    37    1
    41    24    38    1
    42    24    39    1
    43    24    40    1
    44    25    41    1
    45    25    42    1
    46    25    43    1
    47    27    44    1
    48    28    45    1
@<TRIPOS>MOLECULE
9843631
 45 48 0 0 0
SMALL
GASTEIGER

@<TRIPOS>ATOM
      1 S          -2.3781   -0.9100   -1.1070 S.O2    1  LIG1        0.0752
      2 O          -3.2129   -1.8673   -4.4654 O.2     1  LIG1       -0.3377
      3 O          -1.0039   -1.1223   -0.7142 O.2     1  LIG1       -0.1499
      4 O          -3.3599   -1.9650   -0.9652 O.2     1  LIG1       -0.1499
      5 O           4.1908    2.0352    1.0609 O.2     1  LIG1       -0.4436
      6 N          -2.4586   -0.3512   -2.7168 N.pl3   1  LIG1       -0.1831
      7 N          -2.7038   -2.8268   -5.3144 N.ar    1  LIG1       -0.0810
      8 N           4.2886    1.9300   -1.1926 N.ar    1  LIG1       -0.2175
      9 C          -3.0416    0.5308   -0.2739 C.ar    1  LIG1        0.1162
     10 C          -2.2487    1.6115    0.1572 C.ar    1  LIG1        0.0087
     11 C          -0.7829    1.6909    0.0631 C.ar    1  LIG1       -0.0160
     12 C          -4.4381    0.5408   -0.0749 C.ar    1  LIG1       -0.0345
     13 C          -2.2238   -1.3880   -3.6646 C.ar    1  LIG1        0.2399
     14 C          -2.9176    2.7027    0.7569 C.ar    1  LIG1       -0.0521
     15 C          -1.0273   -1.9754   -4.0130 C.ar    1  LIG1        0.0350
     16 C          -0.0081    1.6824    1.2352 C.ar    1  LIG1       -0.0533
     17 C          -0.1187    1.8201   -1.1635 C.ar    1  LIG1       -0.0533
     18 C          -5.0633    1.6294    0.5276 C.ar    1  LIG1       -0.0599
     19 C          -4.3028    2.7153    0.9372 C.ar    1  LIG1       -0.0611
     20 C           2.0505    1.8751   -0.0444 C.ar    1  LIG1        0.0369
     21 C          -1.3961   -2.8913   -5.0408 C.ar    1  LIG1        0.0854
     22 C           1.3864    1.7775    1.1839 C.ar    1  LIG1       -0.0489
     23 C           1.2801    1.8978   -1.2160 C.ar    1  LIG1       -0.0489
     24 C           0.3362   -1.7121   -3.5001 C.3     1  LIG1       -0.0330
     25 C          -0.5257   -3.8137   -5.8074 C.3     1  LIG1       -0.0188
     26 C           3.5076    1.9432   -0.1271 C.ar    1  LIG1        0.2271
     27 C           5.5004    2.0749    0.6922 C.ar    1  LIG1        0.1125
     28 C           5.5569    2.0058   -0.6756 C.ar    1  LIG1        0.0663
     29 H          -3.4012    0.0106   -2.8715 H       1  LIG1        0.1768
     30 H          -5.0527   -0.3031   -0.3860 H       1  LIG1        0.0637
     31 H          -2.3456    3.5673    1.0955 H       1  LIG1        0.0624
     32 H          -0.4897    1.5942    2.2077 H       1  LIG1        0.0624
     33 H          -0.6777    1.8472   -2.0958 H       1  LIG1        0.0624
     34 H          -6.1404    1.6271    0.6772 H       1  LIG1        0.0618
     35 H          -4.7817    3.5716    1.4063 H       1  LIG1        0.0618
     36 H           1.9461    1.7616    2.1167 H       1  LIG1        0.0625
     37 H           1.7715    1.9700   -2.1852 H       1  LIG1        0.0625
     38 H           0.3956   -0.7534   -2.9787 H       1  LIG1        0.0280
     39 H           1.0547   -1.6737   -4.3260 H       1  LIG1        0.0280
     40 H           0.6470   -2.5049   -2.8131 H       1  LIG1        0.0280
     41 H          -1.1131   -4.5211   -6.4021 H       1  LIG1        0.0294
     42 H           0.1120   -4.3922   -5.1319 H       1  LIG1        0.0294
     43 H           0.1160   -3.2479   -6.4902 H       1  LIG1        0.0294
     44 H           6.2255    2.1471    1.4894 H       1  LIG1        0.1046
     45 H           6.4324    2.0060   -1.3093 H       1  LIG1        0.0862
@<TRIPOS>BOND
     1     1     3    2
     2     1     4    2
     3     1     6    1
     4     1     9    1
     5     2     7   ar
     6     2    13   ar
     7     5    26   ar
     8     5    27   ar
     9     6    13    1
    10     7    21   ar
    11     8    26   ar
    12     8    28   ar
    13     9    10   ar
    14     9    12   ar
    15    10    11    1
    16    10    14   ar
    17    11    16   ar
    18    11    17   ar
    19    12    18   ar
    20    13    15   ar
    21    14    19   ar
    22    15    21   ar
    23    15    24    1
    24    16    22   ar
    25    17    23   ar
    26    18    19   ar
    27    20    22   ar
    28    20    23   ar
    29    20    26    1
    30    21    25    1
    31    27    28   ar
    32     6    29    1
    33    12    30    1
    34    14    31    1
    35    16    32    1
    36    17    33    1
    37    18    34    1
    38    19    35    1
    39    22    36    1
    40    23    37    1
    41    24    38    1
    42    24    39    1
    43    24    40    1
    44    25    41    1
    45    25    42    1
    46    25    43    1
    47    27    44    1
    48    28    45    1
@<TRIPOS>MOLECULE
9843631
 45 48 0 0 0
SMALL
GASTEIGER

@<TRIPOS>ATOM
      1 S          -2.3663   -0.9461   -0.8371 S.O2    1  LIG1        0.0752
      2 O          -1.2585   -2.3600   -3.4030 O.2     1  LIG1       -0.3377
      3 O          -0.9536   -1.0816   -0.5661 O.2     1  LIG1       -0.1499
      4 O          -3.2972   -2.0075   -0.5042 O.2     1  LIG1       -0.1499
      5 O           4.2164    2.3062    1.0337 O.2     1  LIG1       -0.4436
      6 N          -2.6298   -0.5423   -2.4623 N.pl3   1  LIG1       -0.1831
      7 N          -1.3594   -3.3010   -4.4124 N.ar    1  LIG1       -0.0810
      8 N           4.3160    1.8350   -1.1724 N.ar    1  LIG1       -0.2175
      9 C          -3.0115    0.5477   -0.0874 C.ar    1  LIG1        0.1162
     10 C          -2.2181    1.6625    0.2426 C.ar    1  LIG1        0.0087
     11 C          -0.7530    1.7439    0.1243 C.ar    1  LIG1       -0.0160
     12 C          -4.4062    0.5659    0.1332 C.ar    1  LIG1       -0.0345
     13 C          -2.4035   -1.6315   -3.3427 C.ar    1  LIG1        0.2399
     14 C          -2.8871    2.7932    0.7652 C.ar    1  LIG1       -0.0521
     15 C          -3.2988   -2.0996   -4.2809 C.ar    1  LIG1        0.0350
     16 C           0.0302    1.8648    1.2843 C.ar    1  LIG1       -0.0533
     17 C          -0.0972    1.7452   -1.1142 C.ar    1  LIG1       -0.0533
     18 C          -5.0299    1.6950    0.6573 C.ar    1  LIG1       -0.0599
     19 C          -4.2697    2.8131    0.9667 C.ar    1  LIG1       -0.0611
     20 C           2.0792    1.9357   -0.0235 C.ar    1  LIG1        0.0369
     21 C          -2.5846   -3.1479   -4.9266 C.ar    1  LIG1        0.0854
     22 C           1.4236    1.9652    1.2126 C.ar    1  LIG1       -0.0489
     23 C           1.3014    1.8228   -1.1848 C.ar    1  LIG1       -0.0489
     24 C          -4.6974   -1.6903   -4.5376 C.3     1  LIG1       -0.0330
     25 C          -3.0524   -4.0384   -6.0149 C.3     1  LIG1       -0.0188
     26 C           3.5349    2.0069   -0.1208 C.ar    1  LIG1        0.2271
     27 C           5.5256    2.3028    0.6611 C.ar    1  LIG1        0.1125
     28 C           5.5839    2.0060   -0.6757 C.ar    1  LIG1        0.0663
     29 H          -3.5162   -0.0635   -2.5910 H       1  LIG1        0.1768
     30 H          -5.0184   -0.3041   -0.1001 H       1  LIG1        0.0637
     31 H          -2.3156    3.6845    1.0268 H       1  LIG1        0.0624
     32 H          -0.4424    1.8721    2.2648 H       1  LIG1        0.0624
     33 H          -0.6595    1.6582   -2.0410 H       1  LIG1        0.0624
     34 H          -6.1041    1.6987    0.8253 H       1  LIG1        0.0618
     35 H          -4.7454    3.7011    1.3761 H       1  LIG1        0.0618
     36 H           1.9901    2.0489    2.1375 H       1  LIG1        0.0625
     37 H           1.7859    1.7838   -2.1590 H       1  LIG1        0.0625
     38 H          -5.0050   -0.8437   -3.9186 H       1  LIG1        0.0280
     39 H          -5.3771   -2.5214   -4.3168 H       1  LIG1        0.0280
     40 H          -4.8335   -1.4059   -5.5862 H       1  LIG1        0.0280
     41 H          -2.2159   -4.5375   -6.5154 H       1  LIG1        0.0294
     42 H          -3.6013   -3.4690   -6.7716 H       1  LIG1        0.0294
     43 H          -3.7195   -4.8066   -5.6126 H       1  LIG1        0.0294
     44 H           6.2491    2.5164    1.4326 H       1  LIG1        0.1046
     45 H           6.4587    1.9088   -1.3028 H       1  LIG1        0.0862
@<TRIPOS>BOND
     1     1     3    2
     2     1     4    2
     3     1     6    1
     4     1     9    1
     5     2     7   ar
     6     2    13   ar
     7     5    26   ar
     8     5    27   ar
     9     6    13    1
    10     7    21   ar
    11     8    26   ar
    12     8    28   ar
    13     9    10   ar
    14     9    12   ar
    15    10    11    1
    16    10    14   ar
    17    11    16   ar
    18    11    17   ar
    19    12    18   ar
    20    13    15   ar
    21    14    19   ar
    22    15    21   ar
    23    15    24    1
    24    16    22   ar
    25    17    23   ar
    26    18    19   ar
    27    20    22   ar
    28    20    23   ar
    29    20    26    1
    30    21    25    1
    31    27    28   ar
    32     6    29    1
    33    12    30    1
    34    14    31    1
    35    16    32    1
    36    17    33    1
    37    18    34    1
    38    19    35    1
    39    22    36    1
    40    23    37    1
    41    24    38    1
    42    24    39    1
    43    24    40    1
    44    25    41    1
    45    25    42    1
    46    25    43    1
    47    27    44    1
    48    28    45    1
@<TRIPOS>MOLECULE
9843631
 45 48 0 0 0
SMALL
GASTEIGER

@<TRIPOS>ATOM
      1 S          -2.3733   -0.9144   -1.0991 S.O2    1  LIG1        0.0752
      2 O          -3.2296   -1.8787   -4.4575 O.2     1  LIG1       -0.3377
      3 O          -0.9972   -1.1264   -0.7206 O.2     1  LIG1       -0.1499
      4 O          -3.3559   -1.9690   -0.9447 O.2     1  LIG1       -0.1499
      5 O           4.1283    1.6551   -1.3379 O.2     1  LIG1       -0.4436
      6 N          -2.4710   -0.3632   -2.7107 N.pl3   1  LIG1       -0.1831
      7 N          -2.7239   -2.8382   -5.3084 N.ar    1  LIG1       -0.0810
      8 N           4.3712    2.2184    0.8357 N.ar    1  LIG1       -0.2175
      9 C          -3.0281    0.5308   -0.2659 C.ar    1  LIG1        0.1162
     10 C          -2.2313    1.6164    0.1492 C.ar    1  LIG1        0.0087
     11 C          -0.7662    1.7009    0.0378 C.ar    1  LIG1       -0.0160
     12 C          -4.4218    0.5383   -0.0477 C.ar    1  LIG1       -0.0345
     13 C          -2.2383   -1.4011   -3.6585 C.ar    1  LIG1        0.2399
     14 C          -2.8974    2.7087    0.7517 C.ar    1  LIG1       -0.0521
     15 C          -1.0436   -1.9897   -4.0093 C.ar    1  LIG1        0.0350
     16 C           0.0192    1.7467    1.2017 C.ar    1  LIG1       -0.0533
     17 C          -0.1120    1.7848   -1.1990 C.ar    1  LIG1       -0.0533
     18 C          -5.0424    1.6278    0.5573 C.ar    1  LIG1       -0.0599
     19 C          -4.2801    2.7179    0.9508 C.ar    1  LIG1       -0.0611
     20 C           2.0655    1.8849   -0.1041 C.ar    1  LIG1        0.0369
     21 C          -1.4158   -2.9044   -5.0377 C.ar    1  LIG1        0.0854
     22 C           1.4118    1.8463    1.1324 C.ar    1  LIG1       -0.0489
     23 C           1.2869    1.8589   -1.2692 C.ar    1  LIG1       -0.0489
     24 C           0.3214   -1.7304   -3.4995 C.3     1  LIG1       -0.0330
     25 C          -0.5475   -3.8266   -5.8074 C.3     1  LIG1       -0.0188
     26 C           3.5232    1.9484   -0.1411 C.ar    1  LIG1        0.2271
     27 C           5.4599    1.7461   -1.0687 C.ar    1  LIG1        0.1125
     28 C           5.6044    2.0970    0.2486 C.ar    1  LIG1        0.0663
     29 H          -3.4167   -0.0065   -2.8588 H       1  LIG1        0.1768
     30 H          -5.0386   -0.3091   -0.3459 H       1  LIG1        0.0637
     31 H          -2.3243    3.5772    1.0783 H       1  LIG1        0.0624
     32 H          -0.4512    1.6980    2.1828 H       1  LIG1        0.0624
     33 H          -0.6805    1.7770   -2.1261 H       1  LIG1        0.0624
     34 H          -6.1173    1.6230    0.7223 H       1  LIG1        0.0618
     35 H          -4.7548    3.5753    1.4226 H       1  LIG1        0.0618
     36 H           1.9891    1.8764    2.0557 H       1  LIG1        0.0625
     37 H           1.7615    1.8950   -2.2474 H       1  LIG1        0.0625
     38 H           0.3872   -0.7652   -2.9910 H       1  LIG1        0.0280
     39 H           1.0406   -1.7071   -4.3251 H       1  LIG1        0.0280
     40 H           0.6264   -2.5166   -2.8023 H       1  LIG1        0.0280
     41 H          -1.1369   -4.5312   -6.4036 H       1  LIG1        0.0294
     42 H           0.0896   -4.4081   -5.1337 H       1  LIG1        0.0294
     43 H           0.0948   -3.2604   -6.4890 H       1  LIG1        0.0294
     44 H           6.1347    1.5383   -1.8854 H       1  LIG1        0.1046
     45 H           6.5176    2.2619    0.8028 H       1  LIG1        0.0862
@<TRIPOS>BOND
     1     1     3    2
     2     1     4    2
     3     1     6    1
     4     1     9    1
     5     2     7   ar
     6     2    13   ar
     7     5    26   ar
     8     5    27   ar
     9     6    13    1
    10     7    21   ar
    11     8    26   ar
    12     8    28   ar
    13     9    10   ar
    14     9    12   ar
    15    10    11    1
    16    10    14   ar
    17    11    16   ar
    18    11    17   ar
    19    12    18   ar
    20    13    15   ar
    21    14    19   ar
    22    15    21   ar
    23    15    24    1
    24    16    22   ar
    25    17    23   ar
    26    18    19   ar
    27    20    22   ar
    28    20    23   ar
    29    20    26    1
    30    21    25    1
    31    27    28   ar
    32     6    29    1
    33    12    30    1
    34    14    31    1
    35    16    32    1
    36    17    33    1
    37    18    34    1
    38    19    35    1
    39    22    36    1
    40    23    37    1
    41    24    38    1
    42    24    39    1
    43    24    40    1
    44    25    41    1
    45    25    42    1
    46    25    43    1
    47    27    44    1
    48    28    45    1
@<TRIPOS>MOLECULE
9843631
 45 48 0 0 0
SMALL
GASTEIGER

@<TRIPOS>ATOM
      1 S          -2.3522   -1.0288   -0.8842 S.O2    1  LIG1        0.0752
      2 O          -3.6751    0.8166   -3.5904 O.2     1  LIG1       -0.3377
      3 O          -1.0545   -1.1972   -0.2682 O.2     1  LIG1       -0.1499
      4 O          -3.3510   -2.0725   -0.7600 O.2     1  LIG1       -0.1499
      5 O           4.0936    2.3960    1.0166 O.2     1  LIG1       -0.4436
      6 N          -2.0858   -0.7198   -2.5407 N.pl3   1  LIG1       -0.1831
      7 N          -4.8845    0.7592   -4.2557 N.ar    1  LIG1       -0.0810
      8 N           4.2544    1.8254   -1.1627 N.ar    1  LIG1       -0.2175
      9 C          -3.0739    0.5015   -0.2888 C.ar    1  LIG1        0.1162
     10 C          -2.3005    1.6247    0.0729 C.ar    1  LIG1        0.0087
     11 C          -0.8353    1.7101    0.0038 C.ar    1  LIG1       -0.0160
     12 C          -4.4741    0.5210   -0.1403 C.ar    1  LIG1       -0.0345
     13 C          -3.2816   -0.4402   -3.2538 C.ar    1  LIG1        0.2399
     14 C          -2.9869    2.7571    0.5627 C.ar    1  LIG1       -0.0521
     15 C          -4.1681   -1.3541   -3.7747 C.ar    1  LIG1        0.0350
     16 C          -0.0707    1.6263    1.1788 C.ar    1  LIG1       -0.0533
     17 C          -0.1653    1.9413   -1.2053 C.ar    1  LIG1       -0.0533
     18 C          -5.1200    1.6556    0.3464 C.ar    1  LIG1       -0.0599
     19 C          -4.3760    2.7746    0.6970 C.ar    1  LIG1       -0.0611
     20 C           1.9931    1.9263   -0.0704 C.ar    1  LIG1        0.0369
     21 C          -5.1749   -0.5434   -4.3700 C.ar    1  LIG1        0.0854
     22 C           1.3233    1.7409    1.1439 C.ar    1  LIG1       -0.0489
     23 C           1.2331    2.0204   -1.2446 C.ar    1  LIG1       -0.0489
     24 C          -4.0985   -2.8343   -3.7631 C.3     1  LIG1       -0.0330
     25 C          -6.4053   -0.9769   -5.0767 C.3     1  LIG1       -0.0188
     26 C           3.4481    2.0209   -0.1368 C.ar    1  LIG1        0.2271
     27 C           5.4090    2.4222    0.6676 C.ar    1  LIG1        0.1125
     28 C           5.5056    2.0585   -0.6496 C.ar    1  LIG1        0.0663
     29 H          -1.4014    0.0298   -2.6028 H       1  LIG1        0.1768
     30 H          -5.0752   -0.3477   -0.4043 H       1  LIG1        0.0637
     31 H          -2.4266    3.6468    0.8520 H       1  LIG1        0.0624
     32 H          -0.5601    1.4669    2.1388 H       1  LIG1        0.0624
     33 H          -0.7223    2.0825   -2.1286 H       1  LIG1        0.0624
     34 H          -6.2022    1.6632    0.4533 H       1  LIG1        0.0618
     35 H          -4.8737    3.6621    1.0810 H       1  LIG1        0.0618
     36 H           1.8806    1.6668    2.0762 H       1  LIG1        0.0625
     37 H           1.7331    2.1749   -2.1998 H       1  LIG1        0.0625
     38 H          -3.1368   -3.1947   -3.3840 H       1  LIG1        0.0280
     39 H          -4.2163   -3.2259   -4.7785 H       1  LIG1        0.0280
     40 H          -4.8942   -3.2531   -3.1395 H       1  LIG1        0.0280
     41 H          -7.1299   -0.1610   -5.1570 H       1  LIG1        0.0294
     42 H          -6.8874   -1.8000   -4.5421 H       1  LIG1        0.0294
     43 H          -6.1601   -1.3181   -6.0864 H       1  LIG1        0.0294
     44 H           6.1093    2.7046    1.4402 H       1  LIG1        0.1046
     45 H           6.3968    1.9573   -1.2534 H       1  LIG1        0.0862
@<TRIPOS>BOND
     1     1     3    2
     2     1     4    2
     3     1     6    1
     4     1     9    1
     5     2     7   ar
     6     2    13   ar
     7     5    26   ar
     8     5    27   ar
     9     6    13    1
    10     7    21   ar
    11     8    26   ar
    12     8    28   ar
    13     9    10   ar
    14     9    12   ar
    15    10    11    1
    16    10    14   ar
    17    11    16   ar
    18    11    17   ar
    19    12    18   ar
    20    13    15   ar
    21    14    19   ar
    22    15    21   ar
    23    15    24    1
    24    16    22   ar
    25    17    23   ar
    26    18    19   ar
    27    20    22   ar
    28    20    23   ar
    29    20    26    1
    30    21    25    1
    31    27    28   ar
    32     6    29    1
    33    12    30    1
    34    14    31    1
    35    16    32    1
    36    17    33    1
    37    18    34    1
    38    19    35    1
    39    22    36    1
    40    23    37    1
    41    24    38    1
    42    24    39    1
    43    24    40    1
    44    25    41    1
    45    25    42    1
    46    25    43    1
    47    27    44    1
    48    28    45    1
@<TRIPOS>MOLECULE
9843631
 45 48 0 0 0
SMALL
GASTEIGER

@<TRIPOS>ATOM
      1 S          -2.4253   -0.8531   -1.2154 S.O2    1  LIG1        0.0752
      2 O          -2.9222   -1.8658    2.1774 O.2     1  LIG1       -0.3377
      3 O          -3.5041   -1.4484   -1.9767 O.2     1  LIG1       -0.1499
      4 O          -1.2397   -0.3791   -1.8949 O.2     1  LIG1       -0.1499
      5 O           4.1888    0.8766    0.6385 O.2     1  LIG1       -0.4436
      6 N          -1.9063   -1.9747   -0.0422 N.pl3   1  LIG1       -0.1831
      7 N          -4.0416   -2.3428    2.8308 N.ar    1  LIG1       -0.0810
      8 N           4.1560    2.7656   -0.5984 N.ar    1  LIG1       -0.2175
      9 C          -3.1092    0.4919   -0.2471 C.ar    1  LIG1        0.1162
     10 C          -2.3064    1.4774    0.3635 C.ar    1  LIG1        0.0087
     11 C          -0.8409    1.5425    0.2900 C.ar    1  LIG1       -0.0160
     12 C          -4.5126    0.5530   -0.1509 C.ar    1  LIG1       -0.0345
     13 C          -2.9107   -2.3243    0.8983 C.ar    1  LIG1        0.2399
     14 C          -2.9624    2.4982    1.0837 C.ar    1  LIG1       -0.0521
     15 C          -3.9631   -3.1937    0.7128 C.ar    1  LIG1        0.0350
     16 C          -0.2235    2.4464   -0.5880 C.ar    1  LIG1       -0.0533
     17 C          -0.0251    0.7639    1.1222 C.ar    1  LIG1       -0.0533
     18 C          -5.1292    1.5748    0.5678 C.ar    1  LIG1       -0.0599
     19 C          -4.3541    2.5465    1.1871 C.ar    1  LIG1       -0.0611
     20 C           1.9865    1.7371    0.1434 C.ar    1  LIG1        0.0369
     21 C          -4.6626   -3.1370    1.9508 C.ar    1  LIG1        0.0854
     22 C           1.1696    2.5458   -0.6560 C.ar    1  LIG1       -0.0489
     23 C           1.3720    0.8469    1.0362 C.ar    1  LIG1       -0.0489
     24 C          -4.2962   -4.0249   -0.4672 C.3     1  LIG1       -0.0330
     25 C          -5.9087   -3.8437    2.3326 C.3     1  LIG1       -0.0188
     26 C           3.4382    1.8527    0.0316 C.ar    1  LIG1        0.2271
     27 C           5.4755    1.2179    0.3496 C.ar    1  LIG1        0.1125
     28 C           5.4524    2.3686   -0.3953 C.ar    1  LIG1        0.0663
     29 H          -1.0558   -1.6075    0.3804 H       1  LIG1        0.1768
     30 H          -5.1377   -0.1965   -0.6330 H       1  LIG1        0.0637
     31 H          -2.3775    3.2783    1.5714 H       1  LIG1        0.0624
     32 H          -0.8269    3.0820   -1.2343 H       1  LIG1        0.0624
     33 H          -0.4674    0.0976    1.8599 H       1  LIG1        0.0624
     34 H          -6.2135    1.6123    0.6418 H       1  LIG1        0.0618
     35 H          -4.8289    3.3483    1.7478 H       1  LIG1        0.0618
     36 H           1.6175    3.2565   -1.3497 H       1  LIG1        0.0625
     37 H           1.9783    0.2186    1.6862 H       1  LIG1        0.0625
     38 H          -3.4632   -4.0806   -1.1743 H       1  LIG1        0.0280
     39 H          -5.1704   -3.6222   -0.9878 H       1  LIG1        0.0280
     40 H          -4.5253   -5.0500   -0.1567 H       1  LIG1        0.0280
     41 H          -6.3812   -3.3827    3.2064 H       1  LIG1        0.0294
     42 H          -5.6939   -4.8901    2.5710 H       1  LIG1        0.0294
     43 H          -6.6336   -3.8197    1.5123 H       1  LIG1        0.0294
     44 H           6.2471    0.5663    0.7305 H       1  LIG1        0.1046
     45 H           6.2882    2.9253   -0.7958 H       1  LIG1        0.0862
@<TRIPOS>BOND
     1     1     3    2
     2     1     4    2
     3     1     6    1
     4     1     9    1
     5     2     7   ar
     6     2    13   ar
     7     5    26   ar
     8     5    27   ar
     9     6    13    1
    10     7    21   ar
    11     8    26   ar
    12     8    28   ar
    13     9    10   ar
    14     9    12   ar
    15    10    11    1
    16    10    14   ar
    17    11    16   ar
    18    11    17   ar
    19    12    18   ar
    20    13    15   ar
    21    14    19   ar
    22    15    21   ar
    23    15    24    1
    24    16    22   ar
    25    17    23   ar
    26    18    19   ar
    27    20    22   ar
    28    20    23   ar
    29    20    26    1
    30    21    25    1
    31    27    28   ar
    32     6    29    1
    33    12    30    1
    34    14    31    1
    35    16    32    1
    36    17    33    1
    37    18    34    1
    38    19    35    1
    39    22    36    1
    40    23    37    1
    41    24    38    1
    42    24    39    1
    43    24    40    1
    44    25    41    1
    45    25    42    1
    46    25    43    1
    47    27    44    1
    48    28    45    1
@<TRIPOS>MOLECULE
9843631
 45 48 0 0 0
SMALL
GASTEIGER

@<TRIPOS>ATOM
      1 S          -2.3323   -1.0114   -0.9326 S.O2    1  LIG1        0.0752
      2 O          -3.7838    0.8574   -3.5368 O.2     1  LIG1       -0.3377
      3 O          -1.0198   -1.1853   -0.3539 O.2     1  LIG1       -0.1499
      4 O          -3.3180   -2.0669   -0.8186 O.2     1  LIG1       -0.1499
      5 O           4.0752    1.9211   -1.3383 O.2     1  LIG1       -0.4436
      6 N          -2.1018   -0.6507   -2.5858 N.pl3   1  LIG1       -0.1831
      7 N          -4.9949    0.7759   -4.1943 N.ar    1  LIG1       -0.0810
      8 N           4.3195    2.0556    0.9029 N.ar    1  LIG1       -0.2175
      9 C          -3.0539    0.4956   -0.2801 C.ar    1  LIG1        0.1162
     10 C          -2.2834    1.6138    0.1032 C.ar    1  LIG1        0.0087
     11 C          -0.8186    1.7073    0.0212 C.ar    1  LIG1       -0.0160
     12 C          -4.4528    0.5012   -0.1108 C.ar    1  LIG1       -0.0345
     13 C          -3.3244   -0.3928   -3.2685 C.ar    1  LIG1        0.2399
     14 C          -2.9698    2.7266    0.6338 C.ar    1  LIG1       -0.0521
     15 C          -4.1747   -1.3235   -3.8237 C.ar    1  LIG1        0.0350
     16 C          -0.0423    1.5930    1.1846 C.ar    1  LIG1       -0.0533
     17 C          -0.1614    1.9710   -1.1883 C.ar    1  LIG1       -0.0533
     18 C          -5.0987    1.6167    0.4168 C.ar    1  LIG1       -0.0599
     19 C          -4.3575    2.7309    0.7880 C.ar    1  LIG1       -0.0611
     20 C           2.0120    1.9035   -0.0830 C.ar    1  LIG1        0.0369
     21 C          -5.2234   -0.5309   -4.3706 C.ar    1  LIG1        0.0854
     22 C           1.3514    1.6970    1.1348 C.ar    1  LIG1       -0.0489
     23 C           1.2376    2.0450   -1.2434 C.ar    1  LIG1       -0.0489
     24 C          -4.0366   -2.7969   -3.8830 C.3     1  LIG1       -0.0330
     25 C          -6.4374   -0.9873   -5.0890 C.3     1  LIG1       -0.0188
     26 C           3.4707    1.9730   -0.1063 C.ar    1  LIG1        0.2271
     27 C           5.4071    1.9679   -1.0583 C.ar    1  LIG1        0.1125
     28 C           5.5522    2.0558    0.3018 C.ar    1  LIG1        0.0663
     29 H          -1.4593    0.1327   -2.6356 H       1  LIG1        0.1768
     30 H          -5.0514   -0.3639   -0.3909 H       1  LIG1        0.0637
     31 H          -2.4114    3.6108    0.9421 H       1  LIG1        0.0624
     32 H          -0.5196    1.4159    2.1468 H       1  LIG1        0.0624
     33 H          -0.7284    2.1404   -2.1002 H       1  LIG1        0.0624
     34 H          -6.1791    1.6135    0.5399 H       1  LIG1        0.0618
     35 H          -4.8552    3.6036    1.2039 H       1  LIG1        0.0618
     36 H           1.9248    1.6013    2.0558 H       1  LIG1        0.0625
     37 H           1.7188    2.2273   -2.2025 H       1  LIG1        0.0625
     38 H          -3.0739   -3.1342   -3.4884 H       1  LIG1        0.0280
     39 H          -4.1030   -3.1397   -4.9216 H       1  LIG1        0.0280
     40 H          -4.8323   -3.2820   -3.3108 H       1  LIG1        0.0280
     41 H          -7.1766   -0.1850   -5.1821 H       1  LIG1        0.0294
     42 H          -6.9124   -1.8182   -4.5566 H       1  LIG1        0.0294
     43 H          -6.1761   -1.3286   -6.0957 H       1  LIG1        0.0294
     44 H           6.0808    1.9285   -1.9007 H       1  LIG1        0.1046
     45 H           6.4660    2.1145    0.8763 H       1  LIG1        0.0862
@<TRIPOS>BOND
     1     1     3    2
     2     1     4    2
     3     1     6    1
     4     1     9    1
     5     2     7   ar
     6     2    13   ar
     7     5    26   ar
     8     5    27   ar
     9     6    13    1
    10     7    21   ar
    11     8    26   ar
    12     8    28   ar
    13     9    10   ar
    14     9    12   ar
    15    10    11    1
    16    10    14   ar
    17    11    16   ar
    18    11    17   ar
    19    12    18   ar
    20    13    15   ar
    21    14    19   ar
    22    15    21   ar
    23    15    24    1
    24    16    22   ar
    25    17    23   ar
    26    18    19   ar
    27    20    22   ar
    28    20    23   ar
    29    20    26    1
    30    21    25    1
    31    27    28   ar
    32     6    29    1
    33    12    30    1
    34    14    31    1
    35    16    32    1
    36    17    33    1
    37    18    34    1
    38    19    35    1
    39    22    36    1
    40    23    37    1
    41    24    38    1
    42    24    39    1
    43    24    40    1
    44    25    41    1
    45    25    42    1
    46    25    43    1
    47    27    44    1
    48    28    45    1
@<TRIPOS>MOLECULE
9843631
 45 48 0 0 0
SMALL
GASTEIGER

@<TRIPOS>ATOM
      1 S          -2.4281   -0.8419   -1.2253 S.O2    1  LIG1        0.0752
      2 O          -2.9218   -1.8723    2.1551 O.2     1  LIG1       -0.3377
      3 O          -3.5101   -1.4223   -1.9936 O.2     1  LIG1       -0.1499
      4 O          -1.2391   -0.3654   -1.8988 O.2     1  LIG1       -0.1499
      5 O           4.1841    0.7751    0.3896 O.2     1  LIG1       -0.4436
      6 N          -1.9149   -1.9840   -0.0694 N.pl3   1  LIG1       -0.1831
      7 N          -4.0410   -2.3454    2.8122 N.ar    1  LIG1       -0.0810
      8 N           4.1611    2.8495   -0.5033 N.ar    1  LIG1       -0.2175
      9 C          -3.1047    0.4949   -0.2406 C.ar    1  LIG1        0.1162
     10 C          -2.2995    1.4775    0.3719 C.ar    1  LIG1        0.0087
     11 C          -0.8340    1.5478    0.2902 C.ar    1  LIG1       -0.0160
     12 C          -4.5081    0.5561   -0.1397 C.ar    1  LIG1       -0.0345
     13 C          -2.9162   -2.3292    0.8753 C.ar    1  LIG1        0.2399
     14 C          -2.9542    2.4938    1.1003 C.ar    1  LIG1       -0.0521
     15 C          -3.9730   -3.1946    0.6931 C.ar    1  LIG1        0.0350
     16 C          -0.2251    2.4970   -0.5457 C.ar    1  LIG1       -0.0533
     17 C          -0.0088    0.7281    1.0724 C.ar    1  LIG1       -0.0533
     18 C          -5.1227    1.5736    0.5865 C.ar    1  LIG1       -0.0599
     19 C          -4.3455    2.5417    1.2087 C.ar    1  LIG1       -0.0611
     20 C           1.9912    1.7441    0.1154 C.ar    1  LIG1        0.0369
     21 C          -4.6682   -3.1365    1.9338 C.ar    1  LIG1        0.0854
     22 C           1.1671    2.5997   -0.6249 C.ar    1  LIG1       -0.0489
     23 C           1.3872    0.8097    0.9689 C.ar    1  LIG1       -0.0489
     24 C          -4.3130   -4.0234   -0.4867 C.3     1  LIG1       -0.0330
     25 C          -5.9147   -3.8402    2.3205 C.3     1  LIG1       -0.0188
     26 C           3.4408    1.8563   -0.0134 C.ar    1  LIG1        0.2271
     27 C           5.4691    1.1343    0.1157 C.ar    1  LIG1        0.1125
     28 C           5.4528    2.3984   -0.4146 C.ar    1  LIG1        0.0663
     29 H          -1.0547   -1.6342    0.3480 H       1  LIG1        0.1768
     30 H          -5.1350   -0.1902   -0.6248 H       1  LIG1        0.0637
     31 H          -2.3684    3.2717    1.5907 H       1  LIG1        0.0624
     32 H          -0.8351    3.1666   -1.1500 H       1  LIG1        0.0624
     33 H          -0.4422    0.0290    1.7842 H       1  LIG1        0.0624
     34 H          -6.2066    1.6111    0.6631 H       1  LIG1        0.0618
     35 H          -4.8185    3.3407    1.7746 H       1  LIG1        0.0618
     36 H           1.6082    3.3467   -1.2835 H       1  LIG1        0.0625
     37 H           2.0019    0.1473    1.5755 H       1  LIG1        0.0625
     38 H          -3.4861   -4.0732   -1.2015 H       1  LIG1        0.0280
     39 H          -5.1932   -3.6231   -0.9983 H       1  LIG1        0.0280
     40 H          -4.5349   -5.0507   -0.1772 H       1  LIG1        0.0280
     41 H          -6.3852   -3.3748    3.1928 H       1  LIG1        0.0294
     42 H          -5.7012   -4.8859    2.5631 H       1  LIG1        0.0294
     43 H          -6.6409   -3.8189    1.5011 H       1  LIG1        0.0294
     44 H           6.2348    0.4092    0.3468 H       1  LIG1        0.1046
     45 H           6.2900    2.9998   -0.7401 H       1  LIG1        0.0862
@<TRIPOS>BOND
     1     1     3    2
     2     1     4    2
     3     1     6    1
     4     1     9    1
     5     2     7   ar
     6     2    13   ar
     7     5    26   ar
     8     5    27   ar
     9     6    13    1
    10     7    21   ar
    11     8    26   ar
    12     8    28   ar
    13     9    10   ar
    14     9    12   ar
    15    10    11    1
    16    10    14   ar
    17    11    16   ar
    18    11    17   ar
    19    12    18   ar
    20    13    15   ar
    21    14    19   ar
    22    15    21   ar
    23    15    24    1
    24    16    22   ar
    25    17    23   ar
    26    18    19   ar
    27    20    22   ar
    28    20    23   ar
    29    20    26    1
    30    21    25    1
    31    27    28   ar
    32     6    29    1
    33    12    30    1
    34    14    31    1
    35    16    32    1
    36    17    33    1
    37    18    34    1
    38    19    35    1
    39    22    36    1
    40    23    37    1
    41    24    38    1
    42    24    39    1
    43    24    40    1
    44    25    41    1
    45    25    42    1
    46    25    43    1
    47    27    44    1
    48    28    45    1
