@<TRIPOS>MOLECULE
104865
 68 71 0 0 0
SMALL
GASTEIGER

@<TRIPOS>ATOM
      1 S           0.7181   -0.5730    3.9729 S.O2    1  LIG1        0.0736
      2 O           0.4139   -1.9300    3.5714 O.2     1  LIG1       -0.1499
      3 O           1.9233   -0.2599    4.7101 O.2     1  LIG1       -0.1499
      4 O          -1.3090   -0.9080    1.1876 O.3     1  LIG1       -0.4435
      5 O          -0.4986   -1.8671   -1.4018 O.3     1  LIG1       -0.4715
      6 O          -3.8629   -0.6029    0.4924 O.3     1  LIG1       -0.4914
      7 O          -1.3133   -2.4863   -4.2063 O.3     1  LIG1       -0.3917
      8 N           0.6763    0.4776    2.6498 N.pl3   1  LIG1       -0.1963
      9 N           2.1965    0.0232    1.0229 N.ar    1  LIG1       -0.2044
     10 N           1.6746   -1.1511   -0.9806 N.ar    1  LIG1       -0.1866
     11 N           4.2910   -0.6677   -1.8741 N.ar    1  LIG1       -0.2331
     12 N           4.8922   -0.1237    0.3724 N.ar    1  LIG1       -0.2331
     13 C          -3.9796    1.5305    7.3194 C.3     1  LIG1       -0.0127
     14 C          -2.8205    0.9860    6.4639 C.ar    1  LIG1       -0.0419
     15 C          -5.3229    0.8029    7.0869 C.3     1  LIG1       -0.0560
     16 C          -4.2028    3.0225    6.9921 C.3     1  LIG1       -0.0560
     17 C          -3.6394    1.3857    8.8192 C.3     1  LIG1       -0.0560
     18 C          -2.9918   -0.0437    5.5205 C.ar    1  LIG1       -0.0562
     19 C          -1.5251    1.5246    6.6097 C.ar    1  LIG1       -0.0562
     20 C          -0.6545    0.0425    4.9185 C.ar    1  LIG1        0.1086
     21 C          -1.9199   -0.5172    4.7550 C.ar    1  LIG1       -0.0348
     22 C          -0.4482    1.0561    5.8526 C.ar    1  LIG1       -0.0348
     23 C           0.9239   -0.1498    1.3988 C.ar    1  LIG1        0.1883
     24 C          -0.0381   -0.8364    0.6867 C.ar    1  LIG1        0.2307
     25 C           0.4091   -1.3029   -0.5343 C.ar    1  LIG1        0.2642
     26 C           2.5441   -0.5147   -0.1648 C.ar    1  LIG1        0.2027
     27 C          -2.0506   -2.0488    0.9618 C.ar    1  LIG1        0.1702
     28 C           3.9746   -0.4230   -0.5795 C.ar    1  LIG1        0.1978
     29 C           0.0413   -2.8951   -2.2425 C.3     1  LIG1        0.1143
     30 C          -3.3945   -1.8879    0.5969 C.ar    1  LIG1        0.1621
     31 C          -1.5238   -3.3317    1.1565 C.ar    1  LIG1       -0.0157
     32 C          -4.1679   -3.0175    0.3143 C.ar    1  LIG1       -0.0163
     33 C           0.0202   -2.4344   -3.6961 C.3     1  LIG1        0.0783
     34 C          -2.3080   -4.4537    0.8909 C.ar    1  LIG1       -0.0581
     35 C          -3.6221   -4.2963    0.4544 C.ar    1  LIG1       -0.0581
     36 C           5.5951   -0.6011   -2.2012 C.ar    1  LIG1        0.0315
     37 C           6.1803   -0.0860   -0.0115 C.ar    1  LIG1        0.0315
     38 C           6.5931   -0.3168   -1.3004 C.ar    1  LIG1       -0.0254
     39 C          -5.2278   -0.4331    0.8585 C.3     1  LIG1        0.0790
     40 H          -1.3041   -2.0420   -5.0704 H       1  LIG1        0.2095
     41 H           1.4330    1.1485    2.7946 H       1  LIG1        0.1754
     42 H          -5.6622    0.9019    6.0493 H       1  LIG1        0.0238
     43 H          -6.1129    1.2191    7.7236 H       1  LIG1        0.0238
     44 H          -5.2480   -0.2653    7.3219 H       1  LIG1        0.0238
     45 H          -4.4249    3.1641    5.9277 H       1  LIG1        0.0238
     46 H          -3.3247    3.6337    7.2284 H       1  LIG1        0.0238
     47 H          -5.0429    3.4317    7.5654 H       1  LIG1        0.0238
     48 H          -3.4350    0.3402    9.0782 H       1  LIG1        0.0238
     49 H          -4.4696    1.7290    9.4477 H       1  LIG1        0.0238
     50 H          -2.7605    1.9737    9.1051 H       1  LIG1        0.0238
     51 H          -3.9612   -0.5066    5.3559 H       1  LIG1        0.0621
     52 H          -1.3361    2.3230    7.3248 H       1  LIG1        0.0621
     53 H          -2.0860   -1.3176    4.0372 H       1  LIG1        0.0637
     54 H           0.5390    1.4879    5.9994 H       1  LIG1        0.0637
     55 H          -0.6100   -3.7682   -2.1216 H       1  LIG1        0.0720
     56 H           1.0505   -3.2077   -1.9491 H       1  LIG1        0.0720
     57 H          -0.5037   -3.4673    1.5056 H       1  LIG1        0.0655
     58 H          -5.1901   -2.9259   -0.0379 H       1  LIG1        0.0655
     59 H           0.3834   -1.4067   -3.7912 H       1  LIG1        0.0591
     60 H           0.6317   -3.0997   -4.3123 H       1  LIG1        0.0591
     61 H          -1.8898   -5.4492    1.0153 H       1  LIG1        0.0619
     62 H          -4.2251   -5.1708    0.2231 H       1  LIG1        0.0619
     63 H           5.8212   -0.7937   -3.2460 H       1  LIG1        0.0831
     64 H           6.8920    0.1412    0.7772 H       1  LIG1        0.0831
     65 H           7.6347   -0.2785   -1.5862 H       1  LIG1        0.0648
     66 H          -5.3944    0.6326    1.0425 H       1  LIG1        0.0660
     67 H          -5.4719   -0.9713    1.7818 H       1  LIG1        0.0660
     68 H          -5.8887   -0.7387    0.0417 H       1  LIG1        0.0660
@<TRIPOS>BOND
     1     1     2    2
     2     1     3    2
     3     1     8    1
     4     1    20    1
     5     4    24    1
     6     4    27    1
     7     5    25    1
     8     5    29    1
     9     6    30    1
    10     6    39    1
    11     7    33    1
    12     8    23    1
    13     9    23   ar
    14     9    26   ar
    15    10    25   ar
    16    10    26   ar
    17    11    28   ar
    18    11    36   ar
    19    12    28   ar
    20    12    37   ar
    21    13    14    1
    22    13    15    1
    23    13    16    1
    24    13    17    1
    25    14    18   ar
    26    14    19   ar
    27    18    21   ar
    28    19    22   ar
    29    20    21   ar
    30    20    22   ar
    31    23    24   ar
    32    24    25   ar
    33    26    28    1
    34    27    30   ar
    35    27    31   ar
    36    29    33    1
    37    30    32   ar
    38    31    34   ar
    39    32    35   ar
    40    34    35   ar
    41    36    38   ar
    42    37    38   ar
    43     7    40    1
    44     8    41    1
    45    15    42    1
    46    15    43    1
    47    15    44    1
    48    16    45    1
    49    16    46    1
    50    16    47    1
    51    17    48    1
    52    17    49    1
    53    17    50    1
    54    18    51    1
    55    19    52    1
    56    21    53    1
    57    22    54    1
    58    29    55    1
    59    29    56    1
    60    31    57    1
    61    32    58    1
    62    33    59    1
    63    33    60    1
    64    34    61    1
    65    35    62    1
    66    36    63    1
    67    37    64    1
    68    38    65    1
    69    39    66    1
    70    39    67    1
    71    39    68    1
@<TRIPOS>MOLECULE
104865
 68 71 0 0 0
SMALL
GASTEIGER

@<TRIPOS>ATOM
      1 S           0.7636   -0.5186    4.0170 S.O2    1  LIG1        0.0736
      2 O          -0.2287   -0.0004    4.9375 O.2     1  LIG1       -0.1499
      3 O           0.7678   -1.9194    3.6427 O.2     1  LIG1       -0.1499
      4 O          -1.2328   -0.8660    1.1051 O.3     1  LIG1       -0.4435
      5 O          -0.4350   -1.5427   -1.5532 O.3     1  LIG1       -0.4715
      6 O          -4.0757   -0.5953    0.4241 O.3     1  LIG1       -0.4914
      7 O           1.1017   -3.9844   -2.4417 O.3     1  LIG1       -0.3917
      8 N           0.6396    0.4414    2.6483 N.pl3   1  LIG1       -0.1963
      9 N           2.3010   -0.0594    1.1166 N.ar    1  LIG1       -0.2044
     10 N           1.7860   -1.0414   -0.9935 N.ar    1  LIG1       -0.1866
     11 N           4.5578   -1.4495   -1.3226 N.ar    1  LIG1       -0.2331
     12 N           4.8598    0.5273   -0.0168 N.ar    1  LIG1       -0.2331
     13 C           6.2560    0.8964    6.3520 C.3     1  LIG1       -0.0127
     14 C           4.8872    0.5259    5.7527 C.ar    1  LIG1       -0.0419
     15 C           6.2036    0.7855    7.8912 C.3     1  LIG1       -0.0560
     16 C           6.6134    2.3459    5.9588 C.3     1  LIG1       -0.0560
     17 C           7.4132   -0.0074    5.8695 C.3     1  LIG1       -0.0560
     18 C           3.7357    1.2545    6.1163 C.ar    1  LIG1       -0.0562
     19 C           4.7246   -0.5252    4.8322 C.ar    1  LIG1       -0.0562
     20 C           2.3570   -0.0858    4.6594 C.ar    1  LIG1        0.1086
     21 C           2.4795    0.9523    5.5824 C.ar    1  LIG1       -0.0348
     22 C           3.4728   -0.8345    4.2917 C.ar    1  LIG1       -0.0348
     23 C           1.0021   -0.1713    1.4203 C.ar    1  LIG1        0.1883
     24 C           0.0487   -0.7862    0.6304 C.ar    1  LIG1        0.2307
     25 C           0.5005   -1.1469   -0.6215 C.ar    1  LIG1        0.2642
     26 C           2.6605   -0.5376   -0.0943 C.ar    1  LIG1        0.2027
     27 C          -2.0110   -1.9549    0.7793 C.ar    1  LIG1        0.1702
     28 C           4.0949   -0.4846   -0.4905 C.ar    1  LIG1        0.1978
     29 C           0.0359   -1.8379   -2.8706 C.3     1  LIG1        0.1143
     30 C          -3.3618   -1.7639    0.4525 C.ar    1  LIG1        0.1621
     31 C          -1.4799   -3.2571    0.8075 C.ar    1  LIG1       -0.0157
     32 C          -4.1287   -2.8744    0.0708 C.ar    1  LIG1       -0.0163
     33 C           0.0223   -3.3453   -3.1145 C.3     1  LIG1        0.0783
     34 C          -2.2570   -4.3499    0.4200 C.ar    1  LIG1       -0.0581
     35 C          -3.5803   -4.1571    0.0404 C.ar    1  LIG1       -0.0581
     36 C           5.8511   -1.3788   -1.6805 C.ar    1  LIG1        0.0315
     37 C           6.1435    0.5530   -0.4211 C.ar    1  LIG1        0.0315
     38 C           6.6989   -0.3850   -1.2583 C.ar    1  LIG1       -0.0254
     39 C          -3.5000    0.5692    0.9952 C.3     1  LIG1        0.0790
     40 H           1.0628   -4.9286   -2.6663 H       1  LIG1        0.2095
     41 H          -0.2673    0.9034    2.6484 H       1  LIG1        0.1754
     42 H           5.4816    1.4803    8.3336 H       1  LIG1        0.0238
     43 H           7.1794    1.0125    8.3366 H       1  LIG1        0.0238
     44 H           5.9215   -0.2266    8.2046 H       1  LIG1        0.0238
     45 H           5.8963    3.0719    6.3576 H       1  LIG1        0.0238
     46 H           6.6311    2.4658    4.8690 H       1  LIG1        0.0238
     47 H           7.6014    2.6273    6.3415 H       1  LIG1        0.0238
     48 H           7.2453   -1.0562    6.1409 H       1  LIG1        0.0238
     49 H           8.3654    0.2943    6.3220 H       1  LIG1        0.0238
     50 H           7.5426    0.0481    4.7823 H       1  LIG1        0.0238
     51 H           3.8039    2.0756    6.8284 H       1  LIG1        0.0621
     52 H           5.5657   -1.1316    4.5076 H       1  LIG1        0.0621
     53 H           1.6119    1.5297    5.8931 H       1  LIG1        0.0637
     54 H           3.3796   -1.6542    3.5837 H       1  LIG1        0.0637
     55 H           1.0115   -1.4009   -3.1068 H       1  LIG1        0.0720
     56 H          -0.6866   -1.3749   -3.5524 H       1  LIG1        0.0720
     57 H          -0.4505   -3.4334    1.1121 H       1  LIG1        0.0655
     58 H          -5.1717   -2.7335   -0.2046 H       1  LIG1        0.0655
     59 H          -0.9109   -3.7894   -2.7546 H       1  LIG1        0.0591
     60 H           0.1291   -3.5464   -4.1851 H       1  LIG1        0.0591
     61 H          -1.8256   -5.3476    0.4124 H       1  LIG1        0.0619
     62 H          -4.1912   -5.0016   -0.2670 H       1  LIG1        0.0619
     63 H           6.1927   -2.1717   -2.3397 H       1  LIG1        0.0831
     64 H           6.7321    1.3820   -0.0389 H       1  LIG1        0.0831
     65 H           7.7343   -0.3440   -1.5655 H       1  LIG1        0.0648
     66 H          -4.2749    1.3410    1.0312 H       1  LIG1        0.0660
     67 H          -2.6927    0.9524    0.3634 H       1  LIG1        0.0660
     68 H          -3.1664    0.3972    2.0241 H       1  LIG1        0.0660
@<TRIPOS>BOND
     1     1     2    2
     2     1     3    2
     3     1     8    1
     4     1    20    1
     5     4    24    1
     6     4    27    1
     7     5    25    1
     8     5    29    1
     9     6    30    1
    10     6    39    1
    11     7    33    1
    12     8    23    1
    13     9    23   ar
    14     9    26   ar
    15    10    25   ar
    16    10    26   ar
    17    11    28   ar
    18    11    36   ar
    19    12    28   ar
    20    12    37   ar
    21    13    14    1
    22    13    15    1
    23    13    16    1
    24    13    17    1
    25    14    18   ar
    26    14    19   ar
    27    18    21   ar
    28    19    22   ar
    29    20    21   ar
    30    20    22   ar
    31    23    24   ar
    32    24    25   ar
    33    26    28    1
    34    27    30   ar
    35    27    31   ar
    36    29    33    1
    37    30    32   ar
    38    31    34   ar
    39    32    35   ar
    40    34    35   ar
    41    36    38   ar
    42    37    38   ar
    43     7    40    1
    44     8    41    1
    45    15    42    1
    46    15    43    1
    47    15    44    1
    48    16    45    1
    49    16    46    1
    50    16    47    1
    51    17    48    1
    52    17    49    1
    53    17    50    1
    54    18    51    1
    55    19    52    1
    56    21    53    1
    57    22    54    1
    58    29    55    1
    59    29    56    1
    60    31    57    1
    61    32    58    1
    62    33    59    1
    63    33    60    1
    64    34    61    1
    65    35    62    1
    66    36    63    1
    67    37    64    1
    68    38    65    1
    69    39    66    1
    70    39    67    1
    71    39    68    1
@<TRIPOS>MOLECULE
104865
 68 71 0 0 0
SMALL
GASTEIGER

@<TRIPOS>ATOM
      1 S           0.8144   -0.6192    4.0418 S.O2    1  LIG1        0.0736
      2 O          -0.1404   -0.1784    5.0405 O.2     1  LIG1       -0.1499
      3 O           0.8318   -1.9940    3.5908 O.2     1  LIG1       -0.1499
      4 O          -1.3348   -0.6625    1.0521 O.3     1  LIG1       -0.4435
      5 O          -0.5181   -1.3368   -1.5700 O.3     1  LIG1       -0.4715
      6 O          -4.0435   -0.4683    0.0444 O.3     1  LIG1       -0.4914
      7 O          -2.1753   -2.4087   -3.5839 O.3     1  LIG1       -0.3917
      8 N           0.5825    0.3968    2.7260 N.pl3   1  LIG1       -0.1963
      9 N           2.2464   -0.0980    1.1844 N.ar    1  LIG1       -0.2044
     10 N           1.7222   -1.0106   -0.9590 N.ar    1  LIG1       -0.1866
     11 N           4.4719   -1.3797   -1.3752 N.ar    1  LIG1       -0.2331
     12 N           4.8432    0.3952    0.1798 N.ar    1  LIG1       -0.2331
     13 C           6.3015    0.8918    6.3122 C.3     1  LIG1       -0.0127
     14 C           4.9270    0.5452    5.7103 C.ar    1  LIG1       -0.0419
     15 C           7.4215    0.5271    5.3133 C.3     1  LIG1       -0.0560
     16 C           6.5022    0.0914    7.6168 C.3     1  LIG1       -0.0560
     17 C           6.4737    2.3881    6.6593 C.3     1  LIG1       -0.0560
     18 C           4.6586   -0.7710    5.2791 C.ar    1  LIG1       -0.0562
     19 C           3.8958    1.4929    5.5831 C.ar    1  LIG1       -0.0562
     20 C           2.4187   -0.1679    4.6353 C.ar    1  LIG1        0.1086
     21 C           3.4182   -1.1298    4.7426 C.ar    1  LIG1       -0.0348
     22 C           2.6494    1.1411    5.0552 C.ar    1  LIG1       -0.0348
     23 C           0.9388   -0.1419    1.4645 C.ar    1  LIG1        0.1883
     24 C          -0.0323   -0.6585    0.6329 C.ar    1  LIG1        0.2307
     25 C           0.4243   -1.0258   -0.6127 C.ar    1  LIG1        0.2642
     26 C           2.6043   -0.5590   -0.0351 C.ar    1  LIG1        0.2027
     27 C          -2.0900   -1.7892    0.8066 C.ar    1  LIG1        0.1702
     28 C           4.0444   -0.5191   -0.4190 C.ar    1  LIG1        0.1978
     29 C           0.0022   -1.5890   -2.8790 C.3     1  LIG1        0.1143
     30 C          -3.3963   -1.6445    0.3183 C.ar    1  LIG1        0.1621
     31 C          -1.5792   -3.0729    1.0570 C.ar    1  LIG1       -0.0157
     32 C          -4.1365   -2.7882   -0.0027 C.ar    1  LIG1       -0.0163
     33 C          -1.1628   -1.4423   -3.8547 C.3     1  LIG1        0.0783
     34 C          -2.3344   -4.2050    0.7482 C.ar    1  LIG1       -0.0581
     35 C          -3.6084   -4.0630    0.2074 C.ar    1  LIG1       -0.0581
     36 C           5.7688   -1.3036   -1.7246 C.ar    1  LIG1        0.0315
     37 C           6.1276    0.4308   -0.2192 C.ar    1  LIG1        0.0315
     38 C           6.6505   -0.4044   -1.1767 C.ar    1  LIG1       -0.0254
     39 C          -3.7583    0.6250    0.9082 C.3     1  LIG1        0.0790
     40 H          -2.3952   -2.3150   -2.6358 H       1  LIG1        0.2095
     41 H          -0.3504    0.7984    2.7787 H       1  LIG1        0.1754
     42 H           7.4575   -0.5469    5.1024 H       1  LIG1        0.0238
     43 H           8.4065    0.8068    5.7050 H       1  LIG1        0.0238
     44 H           7.2818    1.0466    4.3580 H       1  LIG1        0.0238
     45 H           6.4905   -0.9903    7.4440 H       1  LIG1        0.0238
     46 H           5.7122    0.3162    8.3433 H       1  LIG1        0.0238
     47 H           7.4638    0.3329    8.0850 H       1  LIG1        0.0238
     48 H           6.3545    3.0229    5.7737 H       1  LIG1        0.0238
     49 H           7.4720    2.5861    7.0679 H       1  LIG1        0.0238
     50 H           5.7494    2.7148    7.4144 H       1  LIG1        0.0238
     51 H           5.4172   -1.5466    5.3655 H       1  LIG1        0.0621
     52 H           4.0305    2.5239    5.8996 H       1  LIG1        0.0621
     53 H           3.2439   -2.1558    4.4296 H       1  LIG1        0.0637
     54 H           1.8648    1.8917    4.9846 H       1  LIG1        0.0637
     55 H           0.3988   -2.6095   -2.9080 H       1  LIG1        0.0720
     56 H           0.7763   -0.8663   -3.1606 H       1  LIG1        0.0720
     57 H          -0.5882   -3.2084    1.4857 H       1  LIG1        0.0655
     58 H          -5.1383   -2.6838   -0.4124 H       1  LIG1        0.0655
     59 H          -1.6190   -0.4505   -3.7652 H       1  LIG1        0.0591
     60 H          -0.8237   -1.5815   -4.8857 H       1  LIG1        0.0591
     61 H          -1.9250   -5.1965    0.9251 H       1  LIG1        0.0619
     62 H          -4.1971   -4.9424   -0.0433 H       1  LIG1        0.0619
     63 H           6.0861   -2.0105   -2.4862 H       1  LIG1        0.0831
     64 H           6.7437    1.1807    0.2699 H       1  LIG1        0.0831
     65 H           7.6869   -0.3567   -1.4796 H       1  LIG1        0.0648
     66 H          -4.6159    1.3043    0.8811 H       1  LIG1        0.0660
     67 H          -2.8906    1.1812    0.5408 H       1  LIG1        0.0660
     68 H          -3.6183    0.3134    1.9495 H       1  LIG1        0.0660
@<TRIPOS>BOND
     1     1     2    2
     2     1     3    2
     3     1     8    1
     4     1    20    1
     5     4    24    1
     6     4    27    1
     7     5    25    1
     8     5    29    1
     9     6    30    1
    10     6    39    1
    11     7    33    1
    12     8    23    1
    13     9    23   ar
    14     9    26   ar
    15    10    25   ar
    16    10    26   ar
    17    11    28   ar
    18    11    36   ar
    19    12    28   ar
    20    12    37   ar
    21    13    14    1
    22    13    15    1
    23    13    16    1
    24    13    17    1
    25    14    18   ar
    26    14    19   ar
    27    18    21   ar
    28    19    22   ar
    29    20    21   ar
    30    20    22   ar
    31    23    24   ar
    32    24    25   ar
    33    26    28    1
    34    27    30   ar
    35    27    31   ar
    36    29    33    1
    37    30    32   ar
    38    31    34   ar
    39    32    35   ar
    40    34    35   ar
    41    36    38   ar
    42    37    38   ar
    43     7    40    1
    44     8    41    1
    45    15    42    1
    46    15    43    1
    47    15    44    1
    48    16    45    1
    49    16    46    1
    50    16    47    1
    51    17    48    1
    52    17    49    1
    53    17    50    1
    54    18    51    1
    55    19    52    1
    56    21    53    1
    57    22    54    1
    58    29    55    1
    59    29    56    1
    60    31    57    1
    61    32    58    1
    62    33    59    1
    63    33    60    1
    64    34    61    1
    65    35    62    1
    66    36    63    1
    67    37    64    1
    68    38    65    1
    69    39    66    1
    70    39    67    1
    71    39    68    1
@<TRIPOS>MOLECULE
104865
 68 71 0 0 0
SMALL
GASTEIGER

@<TRIPOS>ATOM
      1 S           0.6863   -0.5863    4.0146 S.O2    1  LIG1        0.0736
      2 O           0.9194    0.2327    5.1860 O.2     1  LIG1       -0.1499
      3 O          -0.4882   -1.4223    3.9175 O.2     1  LIG1       -0.1499
      4 O          -1.2752   -0.8530    1.1569 O.3     1  LIG1       -0.4435
      5 O          -0.4626   -1.7124   -1.4545 O.3     1  LIG1       -0.4715
      6 O          -4.0650   -0.5311    0.3023 O.3     1  LIG1       -0.4914
      7 O          -1.3609    0.0899   -3.5927 O.3     1  LIG1       -0.3917
      8 N           0.7431    0.4534    2.6894 N.pl3   1  LIG1       -0.1963
      9 N           2.2460    0.0293    1.0567 N.ar    1  LIG1       -0.2044
     10 N           1.7356   -1.1043   -0.9643 N.ar    1  LIG1       -0.1866
     11 N           4.4855   -1.3068   -1.4663 N.ar    1  LIG1       -0.2331
     12 N           4.8352    0.4660    0.0971 N.ar    1  LIG1       -0.2331
     13 C           5.6312   -4.0849    3.0750 C.3     1  LIG1       -0.0127
     14 C           4.3736   -3.2400    3.3448 C.ar    1  LIG1       -0.0419
     15 C           6.3383   -4.3845    4.4126 C.3     1  LIG1       -0.0560
     16 C           6.5957   -3.3138    2.1466 C.3     1  LIG1       -0.0560
     17 C           5.3373   -5.4400    2.3912 C.3     1  LIG1       -0.0560
     18 C           4.4966   -1.9340    3.8655 C.ar    1  LIG1       -0.0562
     19 C           3.0766   -3.7250    3.1025 C.ar    1  LIG1       -0.0562
     20 C           2.1109   -1.6262    3.8037 C.ar    1  LIG1        0.1086
     21 C           3.3783   -1.1300    4.0961 C.ar    1  LIG1       -0.0348
     22 C           1.9518   -2.9296    3.3380 C.ar    1  LIG1       -0.0348
     23 C           0.9666   -0.1358    1.4198 C.ar    1  LIG1        0.1883
     24 C           0.0048   -0.7955    0.6815 C.ar    1  LIG1        0.2307
     25 C           0.4519   -1.2018   -0.5609 C.ar    1  LIG1        0.2642
     26 C           2.6070   -0.5094   -0.1242 C.ar    1  LIG1        0.2027
     27 C          -2.0754   -1.9308    0.8492 C.ar    1  LIG1        0.1702
     28 C           4.0430   -0.4444   -0.5193 C.ar    1  LIG1        0.1978
     29 C          -0.0328   -1.7866   -2.8189 C.3     1  LIG1        0.1143
     30 C          -3.4031   -1.7207    0.4466 C.ar    1  LIG1        0.1621
     31 C          -1.5900   -3.2429    0.9833 C.ar    1  LIG1       -0.0157
     32 C          -4.1890   -2.8297    0.1004 C.ar    1  LIG1       -0.0163
     33 C          -0.0293   -0.4122   -3.4920 C.3     1  LIG1        0.0783
     34 C          -2.3900   -4.3364    0.6474 C.ar    1  LIG1       -0.0581
     35 C          -3.6879   -4.1290    0.1955 C.ar    1  LIG1       -0.0581
     36 C           5.7912   -1.2419   -1.7835 C.ar    1  LIG1        0.0315
     37 C           6.1289    0.4918   -0.2718 C.ar    1  LIG1        0.0315
     38 C           6.6674   -0.3509   -1.2133 C.ar    1  LIG1       -0.0254
     39 C          -3.5596    0.5962    1.0021 C.3     1  LIG1        0.0790
     40 H          -1.3005    1.0089   -3.9034 H       1  LIG1        0.2095
     41 H           1.4116    1.1999    2.8705 H       1  LIG1        0.1754
     42 H           6.6682   -3.4701    4.9181 H       1  LIG1        0.0238
     43 H           7.2263   -5.0086    4.2595 H       1  LIG1        0.0238
     44 H           5.6710   -4.9172    5.1008 H       1  LIG1        0.0238
     45 H           6.9650   -2.3895    2.6037 H       1  LIG1        0.0238
     46 H           6.1034   -3.0424    1.2052 H       1  LIG1        0.0238
     47 H           7.4758   -3.9193    1.9005 H       1  LIG1        0.0238
     48 H           4.7080   -6.0824    3.0178 H       1  LIG1        0.0238
     49 H           6.2634   -5.9934    2.1962 H       1  LIG1        0.0238
     50 H           4.8325   -5.3022    1.4275 H       1  LIG1        0.0238
     51 H           5.4767   -1.5209    4.0947 H       1  LIG1        0.0621
     52 H           2.9058   -4.7279    2.7230 H       1  LIG1        0.0621
     53 H           3.5085   -0.1227    4.4854 H       1  LIG1        0.0637
     54 H           0.9618   -3.3355    3.1448 H       1  LIG1        0.0637
     55 H          -0.7629   -2.4272   -3.3267 H       1  LIG1        0.0720
     56 H           0.9390   -2.2863   -2.9066 H       1  LIG1        0.0720
     57 H          -0.5816   -3.4257    1.3359 H       1  LIG1        0.0655
     58 H          -5.2098   -2.6741   -0.2397 H       1  LIG1        0.0655
     59 H           0.5599    0.3160   -2.9279 H       1  LIG1        0.0591
     60 H           0.3759   -0.4914   -4.5050 H       1  LIG1        0.0591
     61 H          -1.9976   -5.3459    0.7339 H       1  LIG1        0.0619
     62 H          -4.3156   -4.9733   -0.0760 H       1  LIG1        0.0619
     63 H           6.1217   -1.9534   -2.5350 H       1  LIG1        0.0831
     64 H           6.7397    1.2366    0.2304 H       1  LIG1        0.0831
     65 H           7.7124   -0.3146   -1.4888 H       1  LIG1        0.0648
     66 H          -4.3436    1.3595    1.0101 H       1  LIG1        0.0660
     67 H          -2.6999    1.0229    0.4759 H       1  LIG1        0.0660
     68 H          -3.3230    0.3619    2.0453 H       1  LIG1        0.0660
@<TRIPOS>BOND
     1     1     2    2
     2     1     3    2
     3     1     8    1
     4     1    20    1
     5     4    24    1
     6     4    27    1
     7     5    25    1
     8     5    29    1
     9     6    30    1
    10     6    39    1
    11     7    33    1
    12     8    23    1
    13     9    23   ar
    14     9    26   ar
    15    10    25   ar
    16    10    26   ar
    17    11    28   ar
    18    11    36   ar
    19    12    28   ar
    20    12    37   ar
    21    13    14    1
    22    13    15    1
    23    13    16    1
    24    13    17    1
    25    14    18   ar
    26    14    19   ar
    27    18    21   ar
    28    19    22   ar
    29    20    21   ar
    30    20    22   ar
    31    23    24   ar
    32    24    25   ar
    33    26    28    1
    34    27    30   ar
    35    27    31   ar
    36    29    33    1
    37    30    32   ar
    38    31    34   ar
    39    32    35   ar
    40    34    35   ar
    41    36    38   ar
    42    37    38   ar
    43     7    40    1
    44     8    41    1
    45    15    42    1
    46    15    43    1
    47    15    44    1
    48    16    45    1
    49    16    46    1
    50    16    47    1
    51    17    48    1
    52    17    49    1
    53    17    50    1
    54    18    51    1
    55    19    52    1
    56    21    53    1
    57    22    54    1
    58    29    55    1
    59    29    56    1
    60    31    57    1
    61    32    58    1
    62    33    59    1
    63    33    60    1
    64    34    61    1
    65    35    62    1
    66    36    63    1
    67    37    64    1
    68    38    65    1
    69    39    66    1
    70    39    67    1
    71    39    68    1
@<TRIPOS>MOLECULE
104865
 68 71 0 0 0
SMALL
GASTEIGER

@<TRIPOS>ATOM
      1 S           0.8000   -0.6093    4.0647 S.O2    1  LIG1        0.0736
      2 O          -0.1977   -0.1567    5.0123 O.2     1  LIG1       -0.1499
      3 O           0.8611   -1.9987    3.6593 O.2     1  LIG1       -0.1499
      4 O          -1.2771   -0.8940    1.1765 O.3     1  LIG1       -0.4435
      5 O          -0.4591   -1.6880   -1.4589 O.3     1  LIG1       -0.4715
      6 O          -4.0899   -0.6100    0.3637 O.3     1  LIG1       -0.4914
      7 O          -1.3430    0.1977   -3.4834 O.3     1  LIG1       -0.3917
      8 N           0.6069    0.3760    2.7172 N.pl3   1  LIG1       -0.1963
      9 N           2.2591   -0.1040    1.1656 N.ar    1  LIG1       -0.2044
     10 N           1.7389   -1.0947   -0.9374 N.ar    1  LIG1       -0.1866
     11 N           4.9892   -0.3618    0.5057 N.ar    1  LIG1       -0.2331
     12 N           4.3350   -0.5702   -1.7831 N.ar    1  LIG1       -0.2331
     13 C           6.2667    0.9166    6.3792 C.3     1  LIG1       -0.0127
     14 C           4.8861    0.5773    5.7899 C.ar    1  LIG1       -0.0419
     15 C           6.8138   -0.3084    7.1433 C.3     1  LIG1       -0.0560
     16 C           6.2509    2.1036    7.3689 C.3     1  LIG1       -0.0560
     17 C           7.2425    1.2855    5.2411 C.3     1  LIG1       -0.0560
     18 C           3.7156    1.2646    6.1573 C.ar    1  LIG1       -0.0562
     19 C           4.7596   -0.4682    4.8513 C.ar    1  LIG1       -0.0562
     20 C           2.3832   -0.1141    4.6855 C.ar    1  LIG1        0.1086
     21 C           2.4722    0.9209    5.6160 C.ar    1  LIG1       -0.0348
     22 C           3.5219   -0.8168    4.3049 C.ar    1  LIG1       -0.0348
     23 C           0.9607   -0.2125    1.4758 C.ar    1  LIG1        0.1883
     24 C           0.0027   -0.8283    0.6949 C.ar    1  LIG1        0.2307
     25 C           0.4544   -1.2044   -0.5507 C.ar    1  LIG1        0.2642
     26 C           2.6154   -0.5719   -0.0494 C.ar    1  LIG1        0.2027
     27 C          -2.0617   -1.9797    0.8609 C.ar    1  LIG1        0.1702
     28 C           4.0478   -0.4919   -0.4591 C.ar    1  LIG1        0.1978
     29 C          -0.0261   -1.7291   -2.8224 C.3     1  LIG1        0.1143
     30 C          -3.3939   -1.7849    0.4680 C.ar    1  LIG1        0.1621
     31 C          -1.5504   -3.2849    0.9727 C.ar    1  LIG1       -0.0157
     32 C          -4.1584   -2.9009    0.0999 C.ar    1  LIG1       -0.0163
     33 C          -0.0200   -0.3375   -3.4571 C.3     1  LIG1        0.0783
     34 C          -2.3265   -4.3838    0.6027 C.ar    1  LIG1       -0.0581
     35 C          -3.6283   -4.1906    0.1539 C.ar    1  LIG1       -0.0581
     36 C           6.2711   -0.3136    0.0986 C.ar    1  LIG1        0.0315
     37 C           5.6340   -0.5135   -2.1281 C.ar    1  LIG1        0.0315
     38 C           6.6551   -0.3860   -1.2187 C.ar    1  LIG1       -0.0254
     39 C          -3.5315    0.5638    0.9315 C.3     1  LIG1        0.0790
     40 H          -1.2751    1.1138   -3.8004 H       1  LIG1        0.2095
     41 H          -0.3251    0.7855    2.7471 H       1  LIG1        0.1754
     42 H           6.1290   -0.6115    7.9444 H       1  LIG1        0.0238
     43 H           7.7853   -0.0877    7.6009 H       1  LIG1        0.0238
     44 H           6.9569   -1.1751    6.4886 H       1  LIG1        0.0238
     45 H           5.6108    1.8993    8.2351 H       1  LIG1        0.0238
     46 H           5.8948    3.0231    6.8900 H       1  LIG1        0.0238
     47 H           7.2567    2.3091    7.7548 H       1  LIG1        0.0238
     48 H           7.4042    0.4541    4.5463 H       1  LIG1        0.0238
     49 H           8.2252    1.5652    5.6383 H       1  LIG1        0.0238
     50 H           6.8644    2.1332    4.6574 H       1  LIG1        0.0238
     51 H           3.7378    2.0771    6.8784 H       1  LIG1        0.0621
     52 H           5.6314   -1.0358    4.5325 H       1  LIG1        0.0621
     53 H           1.5832    1.4626    5.9329 H       1  LIG1        0.0637
     54 H           3.4609   -1.6303    3.5857 H       1  LIG1        0.0637
     55 H          -0.7585   -2.3533   -3.3472 H       1  LIG1        0.0720
     56 H           0.9439   -2.2301   -2.9231 H       1  LIG1        0.0720
     57 H          -0.5387   -3.4571    1.3325 H       1  LIG1        0.0655
     58 H          -5.1839   -2.7587   -0.2335 H       1  LIG1        0.0655
     59 H           0.6102    0.3603   -2.8989 H       1  LIG1        0.0591
     60 H           0.3400   -0.3970   -4.4883 H       1  LIG1        0.0591
     61 H          -1.9123   -5.3870    0.6598 H       1  LIG1        0.0619
     62 H          -4.2367   -5.0398   -0.1452 H       1  LIG1        0.0619
     63 H           7.0056   -0.2130    0.8927 H       1  LIG1        0.0831
     64 H           5.8344   -0.5772   -3.1939 H       1  LIG1        0.0831
     65 H           7.6924   -0.3459   -1.5203 H       1  LIG1        0.0648
     66 H          -4.3022    1.3405    0.9162 H       1  LIG1        0.0660
     67 H          -2.6941    0.9274    0.3282 H       1  LIG1        0.0660
     68 H          -3.2450    0.4139    1.9780 H       1  LIG1        0.0660
@<TRIPOS>BOND
     1     1     2    2
     2     1     3    2
     3     1     8    1
     4     1    20    1
     5     4    24    1
     6     4    27    1
     7     5    25    1
     8     5    29    1
     9     6    30    1
    10     6    39    1
    11     7    33    1
    12     8    23    1
    13     9    23   ar
    14     9    26   ar
    15    10    25   ar
    16    10    26   ar
    17    11    28   ar
    18    11    36   ar
    19    12    28   ar
    20    12    37   ar
    21    13    14    1
    22    13    15    1
    23    13    16    1
    24    13    17    1
    25    14    18   ar
    26    14    19   ar
    27    18    21   ar
    28    19    22   ar
    29    20    21   ar
    30    20    22   ar
    31    23    24   ar
    32    24    25   ar
    33    26    28    1
    34    27    30   ar
    35    27    31   ar
    36    29    33    1
    37    30    32   ar
    38    31    34   ar
    39    32    35   ar
    40    34    35   ar
    41    36    38   ar
    42    37    38   ar
    43     7    40    1
    44     8    41    1
    45    15    42    1
    46    15    43    1
    47    15    44    1
    48    16    45    1
    49    16    46    1
    50    16    47    1
    51    17    48    1
    52    17    49    1
    53    17    50    1
    54    18    51    1
    55    19    52    1
    56    21    53    1
    57    22    54    1
    58    29    55    1
    59    29    56    1
    60    31    57    1
    61    32    58    1
    62    33    59    1
    63    33    60    1
    64    34    61    1
    65    35    62    1
    66    36    63    1
    67    37    64    1
    68    38    65    1
    69    39    66    1
    70    39    67    1
    71    39    68    1
@<TRIPOS>MOLECULE
104865
 68 71 0 0 0
SMALL
GASTEIGER

@<TRIPOS>ATOM
      1 S           0.8747   -0.7080    4.0092 S.O2    1  LIG1        0.0736
      2 O          -0.1542   -0.3802    4.9748 O.2     1  LIG1       -0.1499
      3 O           1.0155   -2.0597    3.5102 O.2     1  LIG1       -0.1499
      4 O          -1.3011   -0.8109    1.1635 O.3     1  LIG1       -0.4435
      5 O          -0.5098   -1.6265   -1.4694 O.3     1  LIG1       -0.4715
      6 O          -4.0886   -0.5824    0.2627 O.3     1  LIG1       -0.4914
      7 O          -1.3377    0.1763   -3.6116 O.3     1  LIG1       -0.3917
      8 N           0.6321    0.3654    2.7347 N.pl3   1  LIG1       -0.1963
      9 N           2.2367   -0.0333    1.1151 N.ar    1  LIG1       -0.2044
     10 N           1.7011   -1.0554   -0.9674 N.ar    1  LIG1       -0.1866
     11 N           4.4469   -1.3138   -1.4586 N.ar    1  LIG1       -0.2331
     12 N           4.8200    0.4471    0.1109 N.ar    1  LIG1       -0.2331
     13 C           6.2884    0.9176    6.3935 C.3     1  LIG1       -0.0127
     14 C           4.9147    0.5384    5.8117 C.ar    1  LIG1       -0.0419
     15 C           6.9926    1.8972    5.4318 C.3     1  LIG1       -0.0560
     16 C           7.1610   -0.3467    6.5606 C.3     1  LIG1       -0.0560
     17 C           6.2139    1.5984    7.7787 C.3     1  LIG1       -0.0560
     18 C           4.8385   -0.1917    4.6081 C.ar    1  LIG1       -0.0562
     19 C           3.7033    0.8964    6.4297 C.ar    1  LIG1       -0.0562
     20 C           2.4290   -0.1880    4.6845 C.ar    1  LIG1        0.1086
     21 C           3.6117   -0.5666    4.0560 C.ar    1  LIG1       -0.0348
     22 C           2.4691    0.5366    5.8751 C.ar    1  LIG1       -0.0348
     23 C           0.9458   -0.1508    1.4494 C.ar    1  LIG1        0.1883
     24 C          -0.0233   -0.7571    0.6753 C.ar    1  LIG1        0.2307
     25 C           0.4169   -1.1474   -0.5711 C.ar    1  LIG1        0.2642
     26 C           2.5833   -0.5180   -0.0953 C.ar    1  LIG1        0.2027
     27 C          -2.0747   -1.9153    0.8875 C.ar    1  LIG1        0.1702
     28 C           4.0175   -0.4567   -0.5001 C.ar    1  LIG1        0.1978
     29 C          -0.0677   -1.7360   -2.8266 C.3     1  LIG1        0.1143
     30 C          -3.3981   -1.7496    0.4537 C.ar    1  LIG1        0.1621
     31 C          -1.5594   -3.2086    1.0808 C.ar    1  LIG1       -0.0157
     32 C          -4.1495   -2.8870    0.1285 C.ar    1  LIG1       -0.0163
     33 C          -0.0233   -0.3725   -3.5191 C.3     1  LIG1        0.0783
     34 C          -2.3254   -4.3301    0.7612 C.ar    1  LIG1       -0.0581
     35 C          -3.6177   -4.1690    0.2730 C.ar    1  LIG1       -0.0581
     36 C           5.7483   -1.2489   -1.7936 C.ar    1  LIG1        0.0315
     37 C           6.1077    0.4770   -0.2786 C.ar    1  LIG1        0.0315
     38 C           6.6327   -0.3601   -1.2331 C.ar    1  LIG1       -0.0254
     39 C          -3.6021    0.5945    0.8886 C.3     1  LIG1        0.0790
     40 H          -1.2482    1.0770   -3.9652 H       1  LIG1        0.2095
     41 H          -0.3073    0.7498    2.8193 H       1  LIG1        0.1754
     42 H           7.1653    1.4533    4.4449 H       1  LIG1        0.0238
     43 H           7.9692    2.2032    5.8243 H       1  LIG1        0.0238
     44 H           6.3936    2.8036    5.2833 H       1  LIG1        0.0238
     45 H           7.3811   -0.8313    5.6033 H       1  LIG1        0.0238
     46 H           6.6639   -1.0872    7.1986 H       1  LIG1        0.0238
     47 H           8.1258   -0.1034    7.0208 H       1  LIG1        0.0238
     48 H           5.6653    2.5464    7.7360 H       1  LIG1        0.0238
     49 H           7.2163    1.8268    8.1606 H       1  LIG1        0.0238
     50 H           5.7245    0.9532    8.5177 H       1  LIG1        0.0238
     51 H           5.7421   -0.4839    4.0772 H       1  LIG1        0.0621
     52 H           3.6862    1.4597    7.3590 H       1  LIG1        0.0621
     53 H           3.5935   -1.1449    3.1358 H       1  LIG1        0.0637
     54 H           1.5523    0.8215    6.3865 H       1  LIG1        0.0637
     55 H          -0.8096   -2.3652   -3.3316 H       1  LIG1        0.0720
     56 H           0.8916   -2.2623   -2.8971 H       1  LIG1        0.0720
     57 H          -0.5542   -3.3553    1.4693 H       1  LIG1        0.0655
     58 H          -5.1664   -2.7684   -0.2391 H       1  LIG1        0.0655
     59 H           0.5969    0.3418   -2.9707 H       1  LIG1        0.0591
     60 H           0.3685   -0.4799   -4.5347 H       1  LIG1        0.0591
     61 H          -1.9104   -5.3265    0.8886 H       1  LIG1        0.0619
     62 H          -4.2170   -5.0372    0.0122 H       1  LIG1        0.0619
     63 H           6.0679   -1.9581   -2.5520 H       1  LIG1        0.0831
     64 H           6.7247    1.2204    0.2181 H       1  LIG1        0.0831
     65 H           7.6731   -0.3220   -1.5240 H       1  LIG1        0.0648
     66 H          -4.3967    1.3459    0.8481 H       1  LIG1        0.0660
     67 H          -2.7460    0.9992    0.3405 H       1  LIG1        0.0660
     68 H          -3.3659    0.4291    1.9454 H       1  LIG1        0.0660
@<TRIPOS>BOND
     1     1     2    2
     2     1     3    2
     3     1     8    1
     4     1    20    1
     5     4    24    1
     6     4    27    1
     7     5    25    1
     8     5    29    1
     9     6    30    1
    10     6    39    1
    11     7    33    1
    12     8    23    1
    13     9    23   ar
    14     9    26   ar
    15    10    25   ar
    16    10    26   ar
    17    11    28   ar
    18    11    36   ar
    19    12    28   ar
    20    12    37   ar
    21    13    14    1
    22    13    15    1
    23    13    16    1
    24    13    17    1
    25    14    18   ar
    26    14    19   ar
    27    18    21   ar
    28    19    22   ar
    29    20    21   ar
    30    20    22   ar
    31    23    24   ar
    32    24    25   ar
    33    26    28    1
    34    27    30   ar
    35    27    31   ar
    36    29    33    1
    37    30    32   ar
    38    31    34   ar
    39    32    35   ar
    40    34    35   ar
    41    36    38   ar
    42    37    38   ar
    43     7    40    1
    44     8    41    1
    45    15    42    1
    46    15    43    1
    47    15    44    1
    48    16    45    1
    49    16    46    1
    50    16    47    1
    51    17    48    1
    52    17    49    1
    53    17    50    1
    54    18    51    1
    55    19    52    1
    56    21    53    1
    57    22    54    1
    58    29    55    1
    59    29    56    1
    60    31    57    1
    61    32    58    1
    62    33    59    1
    63    33    60    1
    64    34    61    1
    65    35    62    1
    66    36    63    1
    67    37    64    1
    68    38    65    1
    69    39    66    1
    70    39    67    1
    71    39    68    1
@<TRIPOS>MOLECULE
104865
 68 71 0 0 0
SMALL
GASTEIGER

@<TRIPOS>ATOM
      1 S           0.6752   -0.5932    4.0008 S.O2    1  LIG1        0.0736
      2 O           0.8953    0.2187    5.1794 O.2     1  LIG1       -0.1499
      3 O          -0.5009   -1.4277    3.8809 O.2     1  LIG1       -0.1499
      4 O          -1.2665   -0.8270    1.1285 O.3     1  LIG1       -0.4435
      5 O          -0.4477   -1.6963   -1.4734 O.3     1  LIG1       -0.4715
      6 O          -4.0110   -0.4817    0.2172 O.3     1  LIG1       -0.4914
      7 O           0.2264   -0.6192   -4.9263 O.3     1  LIG1       -0.3917
      8 N           0.7512    0.4544    2.6812 N.pl3   1  LIG1       -0.1963
      9 N           2.2607    0.0299    1.0529 N.ar    1  LIG1       -0.2044
     10 N           1.7502   -1.0912   -0.9748 N.ar    1  LIG1       -0.1866
     11 N           4.5053   -1.3337   -1.4429 N.ar    1  LIG1       -0.2331
     12 N           4.8500    0.4752    0.0799 N.ar    1  LIG1       -0.2331
     13 C           5.6286   -4.0862    3.0785 C.3     1  LIG1       -0.0127
     14 C           4.3690   -3.2438    3.3483 C.ar    1  LIG1       -0.0419
     15 C           6.3353   -4.3873    4.4159 C.3     1  LIG1       -0.0560
     16 C           6.5921   -3.3113    2.1522 C.3     1  LIG1       -0.0560
     17 C           5.3375   -5.4401    2.3916 C.3     1  LIG1       -0.0560
     18 C           4.4882   -1.9396    3.8740 C.ar    1  LIG1       -0.0562
     19 C           3.0732   -3.7281    3.0988 C.ar    1  LIG1       -0.0562
     20 C           2.1017   -1.6332    3.7997 C.ar    1  LIG1        0.1086
     21 C           3.3676   -1.1363    4.1009 C.ar    1  LIG1       -0.0348
     22 C           1.9466   -2.9356    3.3298 C.ar    1  LIG1       -0.0348
     23 C           0.9795   -0.1299    1.4100 C.ar    1  LIG1        0.1883
     24 C           0.0175   -0.7804    0.6638 C.ar    1  LIG1        0.2307
     25 C           0.4673   -1.1889   -0.5769 C.ar    1  LIG1        0.2642
     26 C           2.6226   -0.5048   -0.1297 C.ar    1  LIG1        0.2027
     27 C          -2.0662   -1.9049    0.8220 C.ar    1  LIG1        0.1702
     28 C           4.0598   -0.4489   -0.5190 C.ar    1  LIG1        0.1978
     29 C          -0.0042   -1.8095   -2.8266 C.3     1  LIG1        0.1143
     30 C          -3.3831   -1.6873    0.3926 C.ar    1  LIG1        0.1621
     31 C          -1.5945   -3.2190    0.9729 C.ar    1  LIG1       -0.0157
     32 C          -4.1740   -2.7877    0.0366 C.ar    1  LIG1       -0.0163
     33 C          -0.0705   -0.4633   -3.5437 C.3     1  LIG1        0.0783
     34 C          -2.3984   -4.3064    0.6289 C.ar    1  LIG1       -0.0581
     35 C          -3.6864   -4.0902    0.1509 C.ar    1  LIG1       -0.0581
     36 C           5.8099   -1.2728   -1.7631 C.ar    1  LIG1        0.0315
     37 C           6.1440    0.4937   -0.2890 C.ar    1  LIG1        0.0315
     38 C           6.6843   -0.3679   -1.2128 C.ar    1  LIG1       -0.0254
     39 C          -3.5999    0.5840    1.0651 C.3     1  LIG1        0.0790
     40 H           0.1724    0.2659   -5.3258 H       1  LIG1        0.2095
     41 H           1.4276    1.1921    2.8715 H       1  LIG1        0.1754
     42 H           6.6639   -3.4735    4.9233 H       1  LIG1        0.0238
     43 H           7.2243   -5.0098    4.2617 H       1  LIG1        0.0238
     44 H           5.6685   -4.9224    5.1024 H       1  LIG1        0.0238
     45 H           6.9588   -2.3869    2.6111 H       1  LIG1        0.0238
     46 H           6.0999   -3.0395    1.2109 H       1  LIG1        0.0238
     47 H           7.4738   -3.9145    1.9058 H       1  LIG1        0.0238
     48 H           4.7081   -6.0848    3.0160 H       1  LIG1        0.0238
     49 H           6.2648   -5.9922    2.1970 H       1  LIG1        0.0238
     50 H           4.8341   -5.3015    1.4274 H       1  LIG1        0.0238
     51 H           5.4672   -1.5261    4.1084 H       1  LIG1        0.0621
     52 H           2.9059   -4.7312    2.7152 H       1  LIG1        0.0621
     53 H           3.4956   -0.1303    4.4926 H       1  LIG1        0.0637
     54 H           0.9589   -3.3424    3.1311 H       1  LIG1        0.0637
     55 H          -0.6910   -2.5038   -3.3260 H       1  LIG1        0.0720
     56 H           0.9831   -2.2801   -2.9152 H       1  LIG1        0.0720
     57 H          -0.5937   -3.4079    1.3446 H       1  LIG1        0.0655
     58 H          -5.1865   -2.6250   -0.3251 H       1  LIG1        0.0655
     59 H          -1.0722   -0.0309   -3.4435 H       1  LIG1        0.0591
     60 H           0.6391    0.2494   -3.1118 H       1  LIG1        0.0591
     61 H          -2.0174   -5.3194    0.7301 H       1  LIG1        0.0619
     62 H          -4.3160   -4.9319   -0.1256 H       1  LIG1        0.0619
     63 H           6.1403   -1.9992   -2.5004 H       1  LIG1        0.0831
     64 H           6.7538    1.2499    0.1972 H       1  LIG1        0.0831
     65 H           7.7285   -0.3351   -1.4899 H       1  LIG1        0.0648
     66 H          -4.4127    1.3165    1.0933 H       1  LIG1        0.0660
     67 H          -2.7244    1.0880    0.6450 H       1  LIG1        0.0660
     68 H          -3.4201    0.2543    2.0942 H       1  LIG1        0.0660
@<TRIPOS>BOND
     1     1     2    2
     2     1     3    2
     3     1     8    1
     4     1    20    1
     5     4    24    1
     6     4    27    1
     7     5    25    1
     8     5    29    1
     9     6    30    1
    10     6    39    1
    11     7    33    1
    12     8    23    1
    13     9    23   ar
    14     9    26   ar
    15    10    25   ar
    16    10    26   ar
    17    11    28   ar
    18    11    36   ar
    19    12    28   ar
    20    12    37   ar
    21    13    14    1
    22    13    15    1
    23    13    16    1
    24    13    17    1
    25    14    18   ar
    26    14    19   ar
    27    18    21   ar
    28    19    22   ar
    29    20    21   ar
    30    20    22   ar
    31    23    24   ar
    32    24    25   ar
    33    26    28    1
    34    27    30   ar
    35    27    31   ar
    36    29    33    1
    37    30    32   ar
    38    31    34   ar
    39    32    35   ar
    40    34    35   ar
    41    36    38   ar
    42    37    38   ar
    43     7    40    1
    44     8    41    1
    45    15    42    1
    46    15    43    1
    47    15    44    1
    48    16    45    1
    49    16    46    1
    50    16    47    1
    51    17    48    1
    52    17    49    1
    53    17    50    1
    54    18    51    1
    55    19    52    1
    56    21    53    1
    57    22    54    1
    58    29    55    1
    59    29    56    1
    60    31    57    1
    61    32    58    1
    62    33    59    1
    63    33    60    1
    64    34    61    1
    65    35    62    1
    66    36    63    1
    67    37    64    1
    68    38    65    1
    69    39    66    1
    70    39    67    1
    71    39    68    1
@<TRIPOS>MOLECULE
104865
 68 71 0 0 0
SMALL
GASTEIGER

@<TRIPOS>ATOM
      1 S           0.1613    2.0248    2.6394 S.O2    1  LIG1        0.0736
      2 O           0.1512    2.5044    1.2761 O.2     1  LIG1       -0.1499
      3 O          -1.0205    2.1318    3.4741 O.2     1  LIG1       -0.1499
      4 O          -1.2761   -0.9181    1.1606 O.3     1  LIG1       -0.4435
      5 O          -0.4153   -1.7168   -1.5013 O.3     1  LIG1       -0.4715
      6 O          -3.8295   -0.5568    0.5217 O.3     1  LIG1       -0.4914
      7 O           0.3557   -3.7615   -4.4383 O.3     1  LIG1       -0.3917
      8 N           0.6057    0.3941    2.7054 N.pl3   1  LIG1       -0.1963
      9 N           2.2359    0.0051    1.1039 N.ar    1  LIG1       -0.2044
     10 N           1.7315   -1.0400   -0.9784 N.ar    1  LIG1       -0.1866
     11 N           4.9729   -0.3405    0.4506 N.ar    1  LIG1       -0.2331
     12 N           4.3161   -0.4830   -1.8415 N.ar    1  LIG1       -0.2331
     13 C           4.7020    4.8640    5.6600 C.3     1  LIG1       -0.0127
     14 C           3.5581    4.1668    4.8963 C.ar    1  LIG1       -0.0419
     15 C           6.0724    4.6760    4.9672 C.3     1  LIG1       -0.0560
     16 C           4.8649    4.3138    7.0976 C.3     1  LIG1       -0.0560
     17 C           4.4006    6.3721    5.7457 C.3     1  LIG1       -0.0560
     18 C           3.6020    3.9907    3.4987 C.ar    1  LIG1       -0.0562
     19 C           2.4098    3.7026    5.5660 C.ar    1  LIG1       -0.0562
     20 C           1.4860    2.8256    3.5109 C.ar    1  LIG1        0.1086
     21 C           2.5810    3.3231    2.8090 C.ar    1  LIG1       -0.0348
     22 C           1.3830    3.0386    4.8850 C.ar    1  LIG1       -0.0348
     23 C           0.9495   -0.1682    1.4423 C.ar    1  LIG1        0.1883
     24 C          -0.0065   -0.7927    0.6586 C.ar    1  LIG1        0.2307
     25 C           0.4591   -1.1978   -0.5756 C.ar    1  LIG1        0.2642
     26 C           2.5943   -0.4645   -0.1110 C.ar    1  LIG1        0.2027
     27 C          -2.0175   -2.0338    0.8266 C.ar    1  LIG1        0.1702
     28 C           4.0285   -0.4056   -0.5181 C.ar    1  LIG1        0.1978
     29 C           0.1138   -2.8363   -2.2205 C.3     1  LIG1        0.1143
     30 C          -3.3571   -1.8410    0.4491 C.ar    1  LIG1        0.1621
     31 C          -1.4738   -3.3238    0.8821 C.ar    1  LIG1       -0.0157
     32 C          -4.1122   -2.9467    0.0469 C.ar    1  LIG1       -0.0163
     33 C          -0.0786   -2.6159   -3.7136 C.3     1  LIG1        0.0783
     34 C          -2.2317   -4.4145    0.4609 C.ar    1  LIG1       -0.0581
     35 C          -3.5441   -4.2246    0.0343 C.ar    1  LIG1       -0.0581
     36 C           6.2566   -0.3557    0.0456 C.ar    1  LIG1        0.0315
     37 C           5.6158   -0.4854   -2.1853 C.ar    1  LIG1        0.0315
     38 C           6.6397   -0.4273   -1.2723 C.ar    1  LIG1       -0.0254
     39 C          -5.0588   -0.2794   -0.1351 C.3     1  LIG1        0.0790
     40 H           0.2626   -3.5473   -5.3824 H       1  LIG1        0.2095
     41 H          -0.1609   -0.0997    3.1629 H       1  LIG1        0.1754
     42 H           6.2879    3.6148    4.7963 H       1  LIG1        0.0238
     43 H           6.8858    5.0847    5.5790 H       1  LIG1        0.0238
     44 H           6.1230    5.1929    4.0029 H       1  LIG1        0.0238
     45 H           4.9817    3.2238    7.0942 H       1  LIG1        0.0238
     46 H           4.0097    4.5607    7.7361 H       1  LIG1        0.0238
     47 H           5.7477    4.7408    7.5884 H       1  LIG1        0.0238
     48 H           4.3136    6.8216    4.7500 H       1  LIG1        0.0238
     49 H           5.1970    6.9042    6.2796 H       1  LIG1        0.0238
     50 H           3.4614    6.5650    6.2767 H       1  LIG1        0.0238
     51 H           4.4349    4.3690    2.9112 H       1  LIG1        0.0621
     52 H           2.2848    3.8533    6.6354 H       1  LIG1        0.0621
     53 H           2.6517    3.1990    1.7303 H       1  LIG1        0.0637
     54 H           0.5109    2.6961    5.4374 H       1  LIG1        0.0637
     55 H          -0.4516   -3.7259   -1.9189 H       1  LIG1        0.0720
     56 H           1.1641   -3.0733   -2.0022 H       1  LIG1        0.0720
     57 H          -0.4523   -3.4858    1.2110 H       1  LIG1        0.0655
     58 H          -5.1487   -2.8513   -0.2585 H       1  LIG1        0.0655
     59 H          -1.1352   -2.4365   -3.9393 H       1  LIG1        0.0591
     60 H           0.4904   -1.7426   -4.0474 H       1  LIG1        0.0591
     61 H          -1.7945   -5.4100    0.4503 H       1  LIG1        0.0619
     62 H          -4.1326   -5.0751   -0.3029 H       1  LIG1        0.0619
     63 H           6.9937   -0.3162    0.8423 H       1  LIG1        0.0831
     64 H           5.8129   -0.5416   -3.2520 H       1  LIG1        0.0831
     65 H           7.6784   -0.4364   -1.5722 H       1  LIG1        0.0648
     66 H          -5.2732    0.7859   -0.0076 H       1  LIG1        0.0660
     67 H          -5.8899   -0.8346    0.3112 H       1  LIG1        0.0660
     68 H          -4.9779   -0.4799   -1.2082 H       1  LIG1        0.0660
@<TRIPOS>BOND
     1     1     2    2
     2     1     3    2
     3     1     8    1
     4     1    20    1
     5     4    24    1
     6     4    27    1
     7     5    25    1
     8     5    29    1
     9     6    30    1
    10     6    39    1
    11     7    33    1
    12     8    23    1
    13     9    23   ar
    14     9    26   ar
    15    10    25   ar
    16    10    26   ar
    17    11    28   ar
    18    11    36   ar
    19    12    28   ar
    20    12    37   ar
    21    13    14    1
    22    13    15    1
    23    13    16    1
    24    13    17    1
    25    14    18   ar
    26    14    19   ar
    27    18    21   ar
    28    19    22   ar
    29    20    21   ar
    30    20    22   ar
    31    23    24   ar
    32    24    25   ar
    33    26    28    1
    34    27    30   ar
    35    27    31   ar
    36    29    33    1
    37    30    32   ar
    38    31    34   ar
    39    32    35   ar
    40    34    35   ar
    41    36    38   ar
    42    37    38   ar
    43     7    40    1
    44     8    41    1
    45    15    42    1
    46    15    43    1
    47    15    44    1
    48    16    45    1
    49    16    46    1
    50    16    47    1
    51    17    48    1
    52    17    49    1
    53    17    50    1
    54    18    51    1
    55    19    52    1
    56    21    53    1
    57    22    54    1
    58    29    55    1
    59    29    56    1
    60    31    57    1
    61    32    58    1
    62    33    59    1
    63    33    60    1
    64    34    61    1
    65    35    62    1
    66    36    63    1
    67    37    64    1
    68    38    65    1
    69    39    66    1
    70    39    67    1
    71    39    68    1
@<TRIPOS>MOLECULE
104865
 68 71 0 0 0
SMALL
GASTEIGER

@<TRIPOS>ATOM
      1 S           0.1619    1.9938    2.6264 S.O2    1  LIG1        0.0736
      2 O           0.1531    2.4725    1.2616 O.2     1  LIG1       -0.1499
      3 O          -1.0076    2.1389    3.4713 O.2     1  LIG1       -0.1499
      4 O          -1.2953   -0.9340    1.1358 O.3     1  LIG1       -0.4435
      5 O          -0.4234   -1.7986   -1.4775 O.3     1  LIG1       -0.4715
      6 O          -3.7402   -0.5533    0.2155 O.3     1  LIG1       -0.4914
      7 O           0.4428   -3.5899   -4.5466 O.3     1  LIG1       -0.3917
      8 N           0.5543    0.3530    2.6925 N.pl3   1  LIG1       -0.1963
      9 N           2.2051   -0.0106    1.1033 N.ar    1  LIG1       -0.2044
     10 N           1.7382   -1.1234   -0.9566 N.ar    1  LIG1       -0.1866
     11 N           4.4937   -1.2594   -1.4097 N.ar    1  LIG1       -0.2331
     12 N           4.7734    0.5698    0.1016 N.ar    1  LIG1       -0.2331
     13 C           4.7091    4.8639    5.5788 C.3     1  LIG1       -0.0127
     14 C           3.6026    4.1090    4.8193 C.ar    1  LIG1       -0.0419
     15 C           4.1163    6.1119    6.2712 C.3     1  LIG1       -0.0560
     16 C           5.8629    5.3547    4.6759 C.3     1  LIG1       -0.0560
     17 C           5.3219    3.9354    6.6483 C.3     1  LIG1       -0.0560
     18 C           3.6785    3.8314    3.4415 C.ar    1  LIG1       -0.0562
     19 C           2.4541    3.6686    5.5082 C.ar    1  LIG1       -0.0562
     20 C           1.5219    2.7443    3.4832 C.ar    1  LIG1        0.1086
     21 C           2.6475    3.1582    2.7743 C.ar    1  LIG1       -0.0348
     22 C           1.4183    3.0009    4.8494 C.ar    1  LIG1       -0.0348
     23 C           0.9238   -0.2045    1.4378 C.ar    1  LIG1        0.1883
     24 C          -0.0185   -0.8445    0.6546 C.ar    1  LIG1        0.2307
     25 C           0.4611   -1.2767   -0.5624 C.ar    1  LIG1        0.2642
     26 C           2.5810   -0.4990   -0.0986 C.ar    1  LIG1        0.2027
     27 C          -2.0411   -2.0545    0.8375 C.ar    1  LIG1        0.1702
     28 C           4.0146   -0.3825   -0.4929 C.ar    1  LIG1        0.1978
     29 C           0.1062   -2.8662   -2.2645 C.3     1  LIG1        0.1143
     30 C          -3.3449   -1.8572    0.3550 C.ar    1  LIG1        0.1621
     31 C          -1.5495   -3.3449    1.0688 C.ar    1  LIG1       -0.0157
     32 C          -4.1266   -2.9734    0.0470 C.ar    1  LIG1       -0.0163
     33 C           0.0702   -2.4801   -3.7363 C.3     1  LIG1        0.0783
     34 C          -2.3386   -4.4494    0.7551 C.ar    1  LIG1       -0.0581
     35 C          -3.6204   -4.2635    0.2394 C.ar    1  LIG1       -0.0581
     36 C           5.7971   -1.1593   -1.7253 C.ar    1  LIG1        0.0315
     37 C           6.0683    0.6254   -0.2607 C.ar    1  LIG1        0.0315
     38 C           6.6403   -0.2247   -1.1762 C.ar    1  LIG1       -0.0254
     39 C          -5.0718   -0.3138   -0.2165 C.3     1  LIG1        0.0790
     40 H           0.4163   -3.2830   -5.4691 H       1  LIG1        0.2095
     41 H          -0.2374   -0.1222    3.1269 H       1  LIG1        0.1754
     42 H           3.6330    6.7748    5.5436 H       1  LIG1        0.0238
     43 H           4.8963    6.6890    6.7816 H       1  LIG1        0.0238
     44 H           3.3679    5.8526    7.0279 H       1  LIG1        0.0238
     45 H           5.5024    6.0381    3.8984 H       1  LIG1        0.0238
     46 H           6.3767    4.5195    4.1860 H       1  LIG1        0.0238
     47 H           6.6170    5.8969    5.2588 H       1  LIG1        0.0238
     48 H           4.5835    3.6206    7.3941 H       1  LIG1        0.0238
     49 H           6.1324    4.4371    7.1899 H       1  LIG1        0.0238
     50 H           5.7362    3.0282    6.1928 H       1  LIG1        0.0238
     51 H           4.5360    4.1361    2.8475 H       1  LIG1        0.0621
     52 H           2.3448    3.8506    6.5750 H       1  LIG1        0.0621
     53 H           2.7317    2.9657    1.7064 H       1  LIG1        0.0637
     54 H           0.5364    2.6974    5.4094 H       1  LIG1        0.0637
     55 H          -0.5421   -3.7371   -2.1078 H       1  LIG1        0.0720
     56 H           1.1100   -3.1988   -1.9702 H       1  LIG1        0.0720
     57 H          -0.5563   -3.4990    1.4795 H       1  LIG1        0.0655
     58 H          -5.1321   -2.8751   -0.3471 H       1  LIG1        0.0655
     59 H          -0.9379   -2.1599   -4.0214 H       1  LIG1        0.0591
     60 H           0.7527   -1.6471   -3.9327 H       1  LIG1        0.0591
     61 H          -1.9556   -5.4548    0.9107 H       1  LIG1        0.0619
     62 H          -4.2338   -5.1263   -0.0094 H       1  LIG1        0.0619
     63 H           6.1534   -1.8798   -2.4560 H       1  LIG1        0.0831
     64 H           6.6525    1.4007    0.2268 H       1  LIG1        0.0831
     65 H           7.6850   -0.1632   -1.4464 H       1  LIG1        0.0648
     66 H          -5.2293    0.7691   -0.2293 H       1  LIG1        0.0660
     67 H          -5.7987   -0.7468    0.4786 H       1  LIG1        0.0660
     68 H          -5.2268   -0.6853   -1.2346 H       1  LIG1        0.0660
@<TRIPOS>BOND
     1     1     2    2
     2     1     3    2
     3     1     8    1
     4     1    20    1
     5     4    24    1
     6     4    27    1
     7     5    25    1
     8     5    29    1
     9     6    30    1
    10     6    39    1
    11     7    33    1
    12     8    23    1
    13     9    23   ar
    14     9    26   ar
    15    10    25   ar
    16    10    26   ar
    17    11    28   ar
    18    11    36   ar
    19    12    28   ar
    20    12    37   ar
    21    13    14    1
    22    13    15    1
    23    13    16    1
    24    13    17    1
    25    14    18   ar
    26    14    19   ar
    27    18    21   ar
    28    19    22   ar
    29    20    21   ar
    30    20    22   ar
    31    23    24   ar
    32    24    25   ar
    33    26    28    1
    34    27    30   ar
    35    27    31   ar
    36    29    33    1
    37    30    32   ar
    38    31    34   ar
    39    32    35   ar
    40    34    35   ar
    41    36    38   ar
    42    37    38   ar
    43     7    40    1
    44     8    41    1
    45    15    42    1
    46    15    43    1
    47    15    44    1
    48    16    45    1
    49    16    46    1
    50    16    47    1
    51    17    48    1
    52    17    49    1
    53    17    50    1
    54    18    51    1
    55    19    52    1
    56    21    53    1
    57    22    54    1
    58    29    55    1
    59    29    56    1
    60    31    57    1
    61    32    58    1
    62    33    59    1
    63    33    60    1
    64    34    61    1
    65    35    62    1
    66    36    63    1
    67    37    64    1
    68    38    65    1
    69    39    66    1
    70    39    67    1
    71    39    68    1
@<TRIPOS>MOLECULE
104865
 68 71 0 0 0
SMALL
GASTEIGER

@<TRIPOS>ATOM
      1 S           0.6695   -0.5803    3.8871 S.O2    1  LIG1        0.0736
      2 O           1.0255   -1.9126    3.4317 O.2     1  LIG1       -0.1499
      3 O           1.4330    0.1004    4.9086 O.2     1  LIG1       -0.1499
      4 O          -1.3344   -0.9264    1.0366 O.3     1  LIG1       -0.4435
      5 O          -0.4483   -1.8599   -1.5339 O.3     1  LIG1       -0.4715
      6 O          -3.9072   -0.6408    0.4488 O.3     1  LIG1       -0.4914
      7 O          -1.3764   -4.3032   -2.9795 O.3     1  LIG1       -0.3917
      8 N           0.5811    0.4806    2.5735 N.pl3   1  LIG1       -0.1963
      9 N           2.1466    0.1017    0.9654 N.ar    1  LIG1       -0.2044
     10 N           1.7124   -1.1174   -1.0315 N.ar    1  LIG1       -0.1866
     11 N           4.4703   -1.2677   -1.4598 N.ar    1  LIG1       -0.2331
     12 N           4.7494    0.5758    0.0341 N.ar    1  LIG1       -0.2331
     13 C          -5.1029   -0.7820    5.9765 C.3     1  LIG1       -0.0127
     14 C          -3.6563   -0.7449    5.4490 C.ar    1  LIG1       -0.0419
     15 C          -5.1874   -0.2287    7.4172 C.3     1  LIG1       -0.0560
     16 C          -5.7076   -2.2051    6.0143 C.3     1  LIG1       -0.0560
     17 C          -5.9843    0.0825    5.0538 C.3     1  LIG1       -0.0560
     18 C          -3.0845   -1.8329    4.7663 C.ar    1  LIG1       -0.0562
     19 C          -2.8602    0.4081    5.6125 C.ar    1  LIG1       -0.0562
     20 C          -1.0136   -0.6270    4.4546 C.ar    1  LIG1        0.1086
     21 C          -1.7719   -1.7834    4.2886 C.ar    1  LIG1       -0.0348
     22 C          -1.5478    0.4687    5.1299 C.ar    1  LIG1       -0.0348
     23 C           0.8685   -0.1044    1.3094 C.ar    1  LIG1        0.1883
     24 C          -0.0543   -0.8212    0.5711 C.ar    1  LIG1        0.2307
     25 C           0.4307   -1.2679   -0.6436 C.ar    1  LIG1        0.2642
     26 C           2.5446   -0.4579   -0.1955 C.ar    1  LIG1        0.2027
     27 C          -2.0570   -2.0739    0.7850 C.ar    1  LIG1        0.1702
     28 C           3.9874   -0.3714   -0.5644 C.ar    1  LIG1        0.1978
     29 C           0.1885   -2.4470   -2.6764 C.3     1  LIG1        0.1143
     30 C          -3.4208   -1.9223    0.4930 C.ar    1  LIG1        0.1621
     31 C          -1.5000   -3.3544    0.8956 C.ar    1  LIG1       -0.0157
     32 C          -4.1936   -3.0542    0.2188 C.ar    1  LIG1       -0.0163
     33 C          -0.8776   -3.0978   -3.5578 C.3     1  LIG1        0.0783
     34 C          -2.2819   -4.4785    0.6332 C.ar    1  LIG1       -0.0581
     35 C          -3.6227   -4.3279    0.2843 C.ar    1  LIG1       -0.0581
     36 C           5.7848   -1.2016   -1.7377 C.ar    1  LIG1        0.0315
     37 C           6.0551    0.5983   -0.2920 C.ar    1  LIG1        0.0315
     38 C           6.6334   -0.2785   -1.1777 C.ar    1  LIG1       -0.0254
     39 C          -5.2695   -0.4955    0.8346 C.3     1  LIG1        0.0790
     40 H          -1.9780   -4.0373   -2.2604 H       1  LIG1        0.2095
     41 H           1.2371    1.2417    2.7551 H       1  LIG1        0.1754
     42 H          -4.5063   -0.7657    8.0875 H       1  LIG1        0.0238
     43 H          -6.2020   -0.3315    7.8206 H       1  LIG1        0.0238
     44 H          -4.9386    0.8363    7.4711 H       1  LIG1        0.0238
     45 H          -5.0927   -2.8841    6.6169 H       1  LIG1        0.0238
     46 H          -5.8072   -2.6342    5.0108 H       1  LIG1        0.0238
     47 H          -6.7129   -2.1972    6.4525 H       1  LIG1        0.0238
     48 H          -5.6501    1.1260    5.0317 H       1  LIG1        0.0238
     49 H          -7.0289    0.0783    5.3859 H       1  LIG1        0.0238
     50 H          -5.9622   -0.2900    4.0234 H       1  LIG1        0.0238
     51 H          -3.6398   -2.7495    4.5885 H       1  LIG1        0.0621
     52 H          -3.2526    1.2853    6.1211 H       1  LIG1        0.0621
     53 H          -1.3570   -2.6540    3.7870 H       1  LIG1        0.0637
     54 H          -0.9541    1.3650    5.2898 H       1  LIG1        0.0637
     55 H           0.9093   -3.2062   -2.3494 H       1  LIG1        0.0720
     56 H           0.6877   -1.6649   -3.2607 H       1  LIG1        0.0720
     57 H          -0.4589   -3.4890    1.1788 H       1  LIG1        0.0655
     58 H          -5.2384   -2.9686   -0.0618 H       1  LIG1        0.0655
     59 H          -1.7276   -2.4272   -3.7182 H       1  LIG1        0.0591
     60 H          -0.4464   -3.3592   -4.5285 H       1  LIG1        0.0591
     61 H          -1.8421   -5.4712    0.6939 H       1  LIG1        0.0619
     62 H          -4.2277   -5.2052    0.0664 H       1  LIG1        0.0619
     63 H           6.1462   -1.9420   -2.4457 H       1  LIG1        0.0831
     64 H           6.6429    1.3674    0.2012 H       1  LIG1        0.0831
     65 H           7.6869   -0.2455   -1.4169 H       1  LIG1        0.0648
     66 H          -5.4373    0.5568    1.0834 H       1  LIG1        0.0660
     67 H          -5.5084   -1.0899    1.7235 H       1  LIG1        0.0660
     68 H          -5.9332   -0.7538    0.0036 H       1  LIG1        0.0660
@<TRIPOS>BOND
     1     1     2    2
     2     1     3    2
     3     1     8    1
     4     1    20    1
     5     4    24    1
     6     4    27    1
     7     5    25    1
     8     5    29    1
     9     6    30    1
    10     6    39    1
    11     7    33    1
    12     8    23    1
    13     9    23   ar
    14     9    26   ar
    15    10    25   ar
    16    10    26   ar
    17    11    28   ar
    18    11    36   ar
    19    12    28   ar
    20    12    37   ar
    21    13    14    1
    22    13    15    1
    23    13    16    1
    24    13    17    1
    25    14    18   ar
    26    14    19   ar
    27    18    21   ar
    28    19    22   ar
    29    20    21   ar
    30    20    22   ar
    31    23    24   ar
    32    24    25   ar
    33    26    28    1
    34    27    30   ar
    35    27    31   ar
    36    29    33    1
    37    30    32   ar
    38    31    34   ar
    39    32    35   ar
    40    34    35   ar
    41    36    38   ar
    42    37    38   ar
    43     7    40    1
    44     8    41    1
    45    15    42    1
    46    15    43    1
    47    15    44    1
    48    16    45    1
    49    16    46    1
    50    16    47    1
    51    17    48    1
    52    17    49    1
    53    17    50    1
    54    18    51    1
    55    19    52    1
    56    21    53    1
    57    22    54    1
    58    29    55    1
    59    29    56    1
    60    31    57    1
    61    32    58    1
    62    33    59    1
    63    33    60    1
    64    34    61    1
    65    35    62    1
    66    36    63    1
    67    37    64    1
    68    38    65    1
    69    39    66    1
    70    39    67    1
    71    39    68    1
@<TRIPOS>MOLECULE
104865
 68 71 0 0 0
SMALL
GASTEIGER

@<TRIPOS>ATOM
      1 S           0.8078   -0.6140    4.0563 S.O2    1  LIG1        0.0736
      2 O          -0.1687   -0.1803    5.0364 O.2     1  LIG1       -0.1499
      3 O           0.8600   -1.9942    3.6270 O.2     1  LIG1       -0.1499
      4 O          -1.3149   -0.8069    1.1387 O.3     1  LIG1       -0.4435
      5 O          -0.4708   -1.6619   -1.4604 O.3     1  LIG1       -0.4715
      6 O          -4.0921   -0.5832    0.2212 O.3     1  LIG1       -0.4914
      7 O          -1.2808    0.1642   -3.5929 O.3     1  LIG1       -0.3917
      8 N           0.5809    0.3917    2.7295 N.pl3   1  LIG1       -0.1963
      9 N           2.2342   -0.0751    1.1764 N.ar    1  LIG1       -0.2044
     10 N           1.7334   -1.1067   -0.9127 N.ar    1  LIG1       -0.1866
     11 N           4.4802   -1.3547   -1.3730 N.ar    1  LIG1       -0.2331
     12 N           4.8248    0.4294    0.1766 N.ar    1  LIG1       -0.2331
     13 C           6.2906    0.9102    6.3408 C.3     1  LIG1       -0.0127
     14 C           4.9305    0.5290    5.7284 C.ar    1  LIG1       -0.0419
     15 C           6.2223    0.7909    7.8793 C.3     1  LIG1       -0.0560
     16 C           6.6383    2.3646    5.9588 C.3     1  LIG1       -0.0560
     17 C           7.4601    0.0181    5.8675 C.3     1  LIG1       -0.0560
     18 C           3.7682    1.2373    6.0965 C.ar    1  LIG1       -0.0562
     19 C           4.7848   -0.5189    4.8014 C.ar    1  LIG1       -0.0562
     20 C           2.4053   -0.1329    4.6534 C.ar    1  LIG1        0.1086
     21 C           2.5147    0.9095    5.5723 C.ar    1  LIG1       -0.0348
     22 C           3.5338   -0.8540    4.2715 C.ar    1  LIG1       -0.0348
     23 C           0.9332   -0.1709    1.4759 C.ar    1  LIG1        0.1883
     24 C          -0.0238   -0.7762    0.6855 C.ar    1  LIG1        0.2307
     25 C           0.4404   -1.1842   -0.5455 C.ar    1  LIG1        0.2642
     26 C           2.6019   -0.5695   -0.0250 C.ar    1  LIG1        0.2027
     27 C          -2.0886   -1.9150    0.8765 C.ar    1  LIG1        0.1702
     28 C           4.0383   -0.4974   -0.4198 C.ar    1  LIG1        0.1978
     29 C          -0.0104   -1.7502   -2.8132 C.3     1  LIG1        0.1143
     30 C          -3.4090   -1.7514    0.4325 C.ar    1  LIG1        0.1621
     31 C          -1.5797   -3.2074    1.0911 C.ar    1  LIG1       -0.0157
     32 C          -4.1625   -2.8901    0.1170 C.ar    1  LIG1       -0.0163
     33 C           0.0355   -0.3773   -3.4870 C.3     1  LIG1        0.0783
     34 C          -2.3478   -4.3306    0.7817 C.ar    1  LIG1       -0.0581
     35 C          -3.6362   -4.1718    0.2824 C.ar    1  LIG1       -0.0581
     36 C           5.7773   -1.2651   -1.7180 C.ar    1  LIG1        0.0315
     37 C           6.1097    0.4807   -0.2199 C.ar    1  LIG1        0.0315
     38 C           6.6462   -0.3530   -1.1711 C.ar    1  LIG1       -0.0254
     39 C          -3.6234    0.5899    0.8681 C.3     1  LIG1        0.0790
     40 H          -1.1928    1.0668   -3.9421 H       1  LIG1        0.2095
     41 H          -0.3577    0.7845    2.7757 H       1  LIG1        0.1754
     42 H           5.4936    1.4812    8.3179 H       1  LIG1        0.0238
     43 H           7.1924    1.0183    8.3366 H       1  LIG1        0.0238
     44 H           5.9394   -0.2237    8.1842 H       1  LIG1        0.0238
     45 H           5.9094    3.0815    6.3525 H       1  LIG1        0.0238
     46 H           6.6677    2.4899    4.8699 H       1  LIG1        0.0238
     47 H           7.6189    2.6533    6.3548 H       1  LIG1        0.0238
     48 H           7.2967   -1.0336    6.1303 H       1  LIG1        0.0238
     49 H           8.4041    0.3240    6.3342 H       1  LIG1        0.0238
     50 H           7.6030    0.0812    4.7824 H       1  LIG1        0.0238
     51 H           3.8230    2.0572    6.8103 H       1  LIG1        0.0621
     52 H           5.6360   -1.1069    4.4701 H       1  LIG1        0.0621
     53 H           1.6368    1.4658    5.8921 H       1  LIG1        0.0637
     54 H           3.4532   -1.6758    3.5636 H       1  LIG1        0.0637
     55 H          -0.7420   -2.3765   -3.3364 H       1  LIG1        0.0720
     56 H           0.9528   -2.2700   -2.8784 H       1  LIG1        0.0720
     57 H          -0.5782   -3.3531    1.4891 H       1  LIG1        0.0655
     58 H          -5.1764   -2.7727   -0.2587 H       1  LIG1        0.0655
     59 H           0.6426    0.3336   -2.9197 H       1  LIG1        0.0591
     60 H           0.4434   -0.4689   -4.4978 H       1  LIG1        0.0591
     61 H          -1.9373   -5.3266    0.9255 H       1  LIG1        0.0619
     62 H          -4.2367   -5.0414    0.0295 H       1  LIG1        0.0619
     63 H           6.1061   -1.9727   -2.4740 H       1  LIG1        0.0831
     64 H           6.7144    1.2405    0.2672 H       1  LIG1        0.0831
     65 H           7.6834   -0.2950   -1.4700 H       1  LIG1        0.0648
     66 H          -4.4230    1.3358    0.8252 H       1  LIG1        0.0660
     67 H          -2.7629    1.0069    0.3363 H       1  LIG1        0.0660
     68 H          -3.3996    0.4146    1.9260 H       1  LIG1        0.0660
@<TRIPOS>BOND
     1     1     2    2
     2     1     3    2
     3     1     8    1
     4     1    20    1
     5     4    24    1
     6     4    27    1
     7     5    25    1
     8     5    29    1
     9     6    30    1
    10     6    39    1
    11     7    33    1
    12     8    23    1
    13     9    23   ar
    14     9    26   ar
    15    10    25   ar
    16    10    26   ar
    17    11    28   ar
    18    11    36   ar
    19    12    28   ar
    20    12    37   ar
    21    13    14    1
    22    13    15    1
    23    13    16    1
    24    13    17    1
    25    14    18   ar
    26    14    19   ar
    27    18    21   ar
    28    19    22   ar
    29    20    21   ar
    30    20    22   ar
    31    23    24   ar
    32    24    25   ar
    33    26    28    1
    34    27    30   ar
    35    27    31   ar
    36    29    33    1
    37    30    32   ar
    38    31    34   ar
    39    32    35   ar
    40    34    35   ar
    41    36    38   ar
    42    37    38   ar
    43     7    40    1
    44     8    41    1
    45    15    42    1
    46    15    43    1
    47    15    44    1
    48    16    45    1
    49    16    46    1
    50    16    47    1
    51    17    48    1
    52    17    49    1
    53    17    50    1
    54    18    51    1
    55    19    52    1
    56    21    53    1
    57    22    54    1
    58    29    55    1
    59    29    56    1
    60    31    57    1
    61    32    58    1
    62    33    59    1
    63    33    60    1
    64    34    61    1
    65    35    62    1
    66    36    63    1
    67    37    64    1
    68    38    65    1
    69    39    66    1
    70    39    67    1
    71    39    68    1
@<TRIPOS>MOLECULE
104865
 68 71 0 0 0
SMALL
GASTEIGER

@<TRIPOS>ATOM
      1 S           0.8151   -0.6206    4.0529 S.O2    1  LIG1        0.0736
      2 O          -0.1708   -0.1996    5.0315 O.2     1  LIG1       -0.1499
      3 O           0.8795   -1.9986    3.6205 O.2     1  LIG1       -0.1499
      4 O          -1.3094   -0.8106    1.1314 O.3     1  LIG1       -0.4435
      5 O          -0.4635   -1.6665   -1.4668 O.3     1  LIG1       -0.4715
      6 O          -4.0866   -0.5867    0.2168 O.3     1  LIG1       -0.4914
      7 O          -1.2779    0.1614   -3.5955 O.3     1  LIG1       -0.3917
      8 N           0.5844    0.3840    2.7257 N.pl3   1  LIG1       -0.1963
      9 N           2.2403   -0.0797    1.1720 N.ar    1  LIG1       -0.2044
     10 N           1.7402   -1.1096   -0.9180 N.ar    1  LIG1       -0.1866
     11 N           4.4863   -1.3534   -1.3809 N.ar    1  LIG1       -0.2331
     12 N           4.8322    0.4230    0.1770 N.ar    1  LIG1       -0.2331
     13 C           6.2979    0.9114    6.3283 C.3     1  LIG1       -0.0127
     14 C           4.9157    0.5679    5.7441 C.ar    1  LIG1       -0.0419
     15 C           7.2792    1.2514    5.1858 C.3     1  LIG1       -0.0560
     16 C           6.8369   -0.3004    7.1186 C.3     1  LIG1       -0.0560
     17 C           6.2873    2.1189    7.2934 C.3     1  LIG1       -0.0560
     18 C           4.7826   -0.4924    4.8228 C.ar    1  LIG1       -0.0562
     19 C           3.7488    1.2656    6.1026 C.ar    1  LIG1       -0.0562
     20 C           2.4088   -0.1262    4.6537 C.ar    1  LIG1        0.1086
     21 C           3.5429   -0.8456    4.2844 C.ar    1  LIG1       -0.0348
     22 C           2.5047    0.9216    5.5696 C.ar    1  LIG1       -0.0348
     23 C           0.9393   -0.1767    1.4709 C.ar    1  LIG1        0.1883
     24 C          -0.0179   -0.7807    0.6793 C.ar    1  LIG1        0.2307
     25 C           0.4470   -1.1879   -0.5518 C.ar    1  LIG1        0.2642
     26 C           2.6080   -0.5727   -0.0293 C.ar    1  LIG1        0.2027
     27 C          -2.0829   -1.9190    0.8705 C.ar    1  LIG1        0.1702
     28 C           4.0449   -0.5000   -0.4237 C.ar    1  LIG1        0.1978
     29 C          -0.0035   -1.7521   -2.8199 C.3     1  LIG1        0.1143
     30 C          -3.4038   -1.7552    0.4280 C.ar    1  LIG1        0.1621
     31 C          -1.5740   -3.2113    1.0852 C.ar    1  LIG1       -0.0157
     32 C          -4.1580   -2.8938    0.1141 C.ar    1  LIG1       -0.0163
     33 C           0.0395   -0.3780   -3.4916 C.3     1  LIG1        0.0783
     34 C          -2.3429   -4.3343    0.7777 C.ar    1  LIG1       -0.0581
     35 C          -3.6319   -4.1754    0.2799 C.ar    1  LIG1       -0.0581
     36 C           5.7838   -1.2638   -1.7248 C.ar    1  LIG1        0.0315
     37 C           6.1174    0.4747   -0.2186 C.ar    1  LIG1        0.0315
     38 C           6.6535   -0.3554   -1.1732 C.ar    1  LIG1       -0.0254
     39 C          -3.6186    0.5856    0.8656 C.3     1  LIG1        0.0790
     40 H          -1.1918    1.0649   -3.9427 H       1  LIG1        0.2095
     41 H          -0.3563    0.7702    2.7725 H       1  LIG1        0.1754
     42 H           7.4409    0.4039    4.5110 H       1  LIG1        0.0238
     43 H           8.2615    1.5367    5.5804 H       1  LIG1        0.0238
     44 H           6.9065    2.0870    4.5817 H       1  LIG1        0.0238
     45 H           6.9759   -1.1812    6.4821 H       1  LIG1        0.0238
     46 H           6.1493   -0.5831    7.9248 H       1  LIG1        0.0238
     47 H           7.8089   -0.0758    7.5732 H       1  LIG1        0.0238
     48 H           5.9352    3.0298    6.7954 H       1  LIG1        0.0238
     49 H           7.2938    2.3281    7.6755 H       1  LIG1        0.0238
     50 H           5.6463    1.9353    8.1636 H       1  LIG1        0.0238
     51 H           5.6521   -1.0688    4.5144 H       1  LIG1        0.0621
     52 H           3.7741    2.0888    6.8107 H       1  LIG1        0.0621
     53 H           3.4750   -1.6718    3.5818 H       1  LIG1        0.0637
     54 H           1.6162    1.4687    5.8785 H       1  LIG1        0.0637
     55 H          -0.7344   -2.3788   -3.3436 H       1  LIG1        0.0720
     56 H           0.9605   -2.2700   -2.8865 H       1  LIG1        0.0720
     57 H          -0.5720   -3.3570    1.4820 H       1  LIG1        0.0655
     58 H          -5.1723   -2.7762   -0.2604 H       1  LIG1        0.0655
     59 H           0.6457    0.3330   -2.9236 H       1  LIG1        0.0591
     60 H           0.4467   -0.4672   -4.5029 H       1  LIG1        0.0591
     61 H          -1.9326   -5.3304    0.9218 H       1  LIG1        0.0619
     62 H          -4.2330   -5.0451    0.0285 H       1  LIG1        0.0619
     63 H           6.1123   -1.9684   -2.4837 H       1  LIG1        0.0831
     64 H           6.7227    1.2315    0.2723 H       1  LIG1        0.0831
     65 H           7.6910   -0.2973   -1.4711 H       1  LIG1        0.0648
     66 H          -4.4188    1.3310    0.8242 H       1  LIG1        0.0660
     67 H          -2.7585    1.0042    0.3344 H       1  LIG1        0.0660
     68 H          -3.3944    0.4088    1.9233 H       1  LIG1        0.0660
@<TRIPOS>BOND
     1     1     2    2
     2     1     3    2
     3     1     8    1
     4     1    20    1
     5     4    24    1
     6     4    27    1
     7     5    25    1
     8     5    29    1
     9     6    30    1
    10     6    39    1
    11     7    33    1
    12     8    23    1
    13     9    23   ar
    14     9    26   ar
    15    10    25   ar
    16    10    26   ar
    17    11    28   ar
    18    11    36   ar
    19    12    28   ar
    20    12    37   ar
    21    13    14    1
    22    13    15    1
    23    13    16    1
    24    13    17    1
    25    14    18   ar
    26    14    19   ar
    27    18    21   ar
    28    19    22   ar
    29    20    21   ar
    30    20    22   ar
    31    23    24   ar
    32    24    25   ar
    33    26    28    1
    34    27    30   ar
    35    27    31   ar
    36    29    33    1
    37    30    32   ar
    38    31    34   ar
    39    32    35   ar
    40    34    35   ar
    41    36    38   ar
    42    37    38   ar
    43     7    40    1
    44     8    41    1
    45    15    42    1
    46    15    43    1
    47    15    44    1
    48    16    45    1
    49    16    46    1
    50    16    47    1
    51    17    48    1
    52    17    49    1
    53    17    50    1
    54    18    51    1
    55    19    52    1
    56    21    53    1
    57    22    54    1
    58    29    55    1
    59    29    56    1
    60    31    57    1
    61    32    58    1
    62    33    59    1
    63    33    60    1
    64    34    61    1
    65    35    62    1
    66    36    63    1
    67    37    64    1
    68    38    65    1
    69    39    66    1
    70    39    67    1
    71    39    68    1
@<TRIPOS>MOLECULE
104865
 68 71 0 0 0
SMALL
GASTEIGER

@<TRIPOS>ATOM
      1 S           0.7290   -0.5292    3.9444 S.O2    1  LIG1        0.0736
      2 O           1.1364   -1.8514    3.5127 O.2     1  LIG1       -0.1499
      3 O           1.4299    0.1718    4.9987 O.2     1  LIG1       -0.1499
      4 O          -1.2862   -0.9035    1.1925 O.3     1  LIG1       -0.4435
      5 O          -0.4690   -1.9028   -1.3875 O.3     1  LIG1       -0.4715
      6 O          -3.7372   -0.5374    0.2549 O.3     1  LIG1       -0.4914
      7 O           0.4435   -3.6346   -4.4803 O.3     1  LIG1       -0.3917
      8 N           0.6886    0.5219    2.6239 N.pl3   1  LIG1       -0.1963
      9 N           2.1879    0.1154    0.9678 N.ar    1  LIG1       -0.2044
     10 N           1.6925   -1.1576   -0.9814 N.ar    1  LIG1       -0.1866
     11 N           4.4442   -1.2819   -1.5032 N.ar    1  LIG1       -0.2331
     12 N           4.7517    0.5746   -0.0316 N.ar    1  LIG1       -0.2331
     13 C          -5.1162   -0.8057    5.7840 C.3     1  LIG1       -0.0127
     14 C          -3.6524   -0.7584    5.3099 C.ar    1  LIG1       -0.0419
     15 C          -5.7010   -2.2345    5.8650 C.3     1  LIG1       -0.0560
     16 C          -6.0000   -0.0040    4.8052 C.3     1  LIG1       -0.0560
     17 C          -5.2288   -0.1897    7.1955 C.3     1  LIG1       -0.0560
     18 C          -2.9768    0.4772    5.2166 C.ar    1  LIG1       -0.0562
     19 C          -2.9377   -1.9163    4.9573 C.ar    1  LIG1       -0.0562
     20 C          -0.9698   -0.6124    4.4472 C.ar    1  LIG1        0.1086
     21 C          -1.6467    0.5550    4.7923 C.ar    1  LIG1       -0.0348
     22 C          -1.6064   -1.8485    4.5369 C.ar    1  LIG1       -0.0348
     23 C           0.9243   -0.0853    1.3630 C.ar    1  LIG1        0.1883
     24 C          -0.0219   -0.8193    0.6778 C.ar    1  LIG1        0.2307
     25 C           0.4323   -1.3152   -0.5293 C.ar    1  LIG1        0.2642
     26 C           2.5480   -0.4690   -0.1939 C.ar    1  LIG1        0.2027
     27 C          -2.0405   -2.0258    0.9235 C.ar    1  LIG1        0.1702
     28 C           3.9784   -0.3786   -0.6070 C.ar    1  LIG1        0.1978
     29 C           0.0721   -2.9547   -2.1883 C.3     1  LIG1        0.1143
     30 C          -3.3423   -1.8380    0.4320 C.ar    1  LIG1        0.1621
     31 C          -1.5510   -3.3121    1.1841 C.ar    1  LIG1       -0.0157
     32 C          -4.1214   -2.9614    0.1426 C.ar    1  LIG1       -0.0163
     33 C           0.0665   -2.5393   -3.6529 C.3     1  LIG1        0.0783
     34 C          -2.3384   -4.4231    0.8907 C.ar    1  LIG1       -0.0581
     35 C          -3.6168   -4.2476    0.3636 C.ar    1  LIG1       -0.0581
     36 C           5.7537   -1.2181   -1.8048 C.ar    1  LIG1        0.0315
     37 C           6.0512    0.5938   -0.3794 C.ar    1  LIG1        0.0315
     38 C           6.6131   -0.2914   -1.2667 C.ar    1  LIG1       -0.0254
     39 C          -5.0773   -0.3142   -0.1590 C.3     1  LIG1        0.0790
     40 H           0.4410   -3.3072   -5.3959 H       1  LIG1        0.2095
     41 H           1.3675    1.2645    2.7908 H       1  LIG1        0.1754
     42 H          -5.6987   -2.7283    4.8863 H       1  LIG1        0.0238
     43 H          -6.7407   -2.2170    6.2134 H       1  LIG1        0.0238
     44 H          -5.1373   -2.8615    6.5658 H       1  LIG1        0.0238
     45 H          -5.9196   -0.4005    3.7859 H       1  LIG1        0.0238
     46 H          -5.7213    1.0549    4.7689 H       1  LIG1        0.0238
     47 H          -7.0553   -0.0487    5.0986 H       1  LIG1        0.0238
     48 H          -4.5820   -0.7155    7.9080 H       1  LIG1        0.0238
     49 H          -6.2567   -0.2493    7.5720 H       1  LIG1        0.0238
     50 H          -4.9440    0.8679    7.2113 H       1  LIG1        0.0238
     51 H          -3.4837    1.4038    5.4791 H       1  LIG1        0.0621
     52 H          -3.3938   -2.9016    5.0009 H       1  LIG1        0.0621
     53 H          -1.1508    1.5209    4.7423 H       1  LIG1        0.0637
     54 H          -1.0813   -2.7662    4.2835 H       1  LIG1        0.0637
     55 H          -0.5838   -3.8248   -2.0628 H       1  LIG1        0.0720
     56 H           1.0660   -3.2997   -1.8748 H       1  LIG1        0.0720
     57 H          -0.5575   -3.4542    1.6013 H       1  LIG1        0.0655
     58 H          -5.1231   -2.8726   -0.2639 H       1  LIG1        0.0655
     59 H          -0.9341   -2.2050   -3.9487 H       1  LIG1        0.0591
     60 H           0.7581   -1.7077   -3.8215 H       1  LIG1        0.0591
     61 H          -1.9538   -5.4243    1.0671 H       1  LIG1        0.0619
     62 H          -4.2272   -5.1155    0.1253 H       1  LIG1        0.0619
     63 H           6.1025   -1.9646   -2.5127 H       1  LIG1        0.0831
     64 H           6.6472    1.3662    0.0983 H       1  LIG1        0.0831
     65 H           7.6627   -0.2621   -1.5229 H       1  LIG1        0.0648
     66 H          -5.2426    0.7672   -0.1868 H       1  LIG1        0.0660
     67 H          -5.7910   -0.7405    0.5538 H       1  LIG1        0.0660
     68 H          -5.2452   -0.7024   -1.1689 H       1  LIG1        0.0660
@<TRIPOS>BOND
     1     1     2    2
     2     1     3    2
     3     1     8    1
     4     1    20    1
     5     4    24    1
     6     4    27    1
     7     5    25    1
     8     5    29    1
     9     6    30    1
    10     6    39    1
    11     7    33    1
    12     8    23    1
    13     9    23   ar
    14     9    26   ar
    15    10    25   ar
    16    10    26   ar
    17    11    28   ar
    18    11    36   ar
    19    12    28   ar
    20    12    37   ar
    21    13    14    1
    22    13    15    1
    23    13    16    1
    24    13    17    1
    25    14    18   ar
    26    14    19   ar
    27    18    21   ar
    28    19    22   ar
    29    20    21   ar
    30    20    22   ar
    31    23    24   ar
    32    24    25   ar
    33    26    28    1
    34    27    30   ar
    35    27    31   ar
    36    29    33    1
    37    30    32   ar
    38    31    34   ar
    39    32    35   ar
    40    34    35   ar
    41    36    38   ar
    42    37    38   ar
    43     7    40    1
    44     8    41    1
    45    15    42    1
    46    15    43    1
    47    15    44    1
    48    16    45    1
    49    16    46    1
    50    16    47    1
    51    17    48    1
    52    17    49    1
    53    17    50    1
    54    18    51    1
    55    19    52    1
    56    21    53    1
    57    22    54    1
    58    29    55    1
    59    29    56    1
    60    31    57    1
    61    32    58    1
    62    33    59    1
    63    33    60    1
    64    34    61    1
    65    35    62    1
    66    36    63    1
    67    37    64    1
    68    38    65    1
    69    39    66    1
    70    39    67    1
    71    39    68    1
@<TRIPOS>MOLECULE
104865
 68 71 0 0 0
SMALL
GASTEIGER

@<TRIPOS>ATOM
      1 S           0.7093   -0.6422    3.9264 S.O2    1  LIG1        0.0736
      2 O           1.0511   -1.9672    3.4547 O.2     1  LIG1       -0.1499
      3 O           1.4760    0.0098    4.9677 O.2     1  LIG1       -0.1499
      4 O          -1.2995   -0.9246    1.1144 O.3     1  LIG1       -0.4435
      5 O          -0.4353   -1.8579   -1.4699 O.3     1  LIG1       -0.4715
      6 O          -3.7622   -0.5445    0.2195 O.3     1  LIG1       -0.4914
      7 O           0.4677   -3.6367   -4.5369 O.3     1  LIG1       -0.3917
      8 N           0.6532    0.4429    2.6321 N.pl3   1  LIG1       -0.1963
      9 N           2.1877    0.0711    0.9953 N.ar    1  LIG1       -0.2044
     10 N           1.7216   -1.1421   -0.9995 N.ar    1  LIG1       -0.1866
     11 N           4.4791   -1.2570   -1.4826 N.ar    1  LIG1       -0.2331
     12 N           4.7639    0.5668    0.0338 N.ar    1  LIG1       -0.2331
     13 C          -5.1014   -0.7506    5.9009 C.3     1  LIG1       -0.0127
     14 C          -3.6385   -0.7419    5.4201 C.ar    1  LIG1       -0.0419
     15 C          -5.9437    0.0893    4.9202 C.3     1  LIG1       -0.0560
     16 C          -5.2244   -0.1496    7.3193 C.3     1  LIG1       -0.0560
     17 C          -5.7219   -2.1659    5.9655 C.3     1  LIG1       -0.0560
     18 C          -3.0488   -1.8637    4.8113 C.ar    1  LIG1       -0.0562
     19 C          -2.8475    0.4191    5.5463 C.ar    1  LIG1       -0.0562
     20 C          -0.9757   -0.6695    4.4837 C.ar    1  LIG1        0.1086
     21 C          -1.7263   -1.8360    4.3623 C.ar    1  LIG1       -0.0348
     22 C          -1.5245    0.4577    5.0907 C.ar    1  LIG1       -0.0348
     23 C           0.9148   -0.1310    1.3597 C.ar    1  LIG1        0.1883
     24 C          -0.0221   -0.8388    0.6347 C.ar    1  LIG1        0.2307
     25 C           0.4527   -1.3046   -0.5758 C.ar    1  LIG1        0.2642
     26 C           2.5657   -0.4803   -0.1772 C.ar    1  LIG1        0.2027
     27 C          -2.0506   -2.0442    0.8227 C.ar    1  LIG1        0.1702
     28 C           4.0011   -0.3774   -0.5694 C.ar    1  LIG1        0.1978
     29 C           0.1049   -2.9231   -2.2540 C.3     1  LIG1        0.1143
     30 C          -3.3628   -1.8479    0.3622 C.ar    1  LIG1        0.1621
     31 C          -1.5560   -3.3364    1.0434 C.ar    1  LIG1       -0.0157
     32 C          -4.1498   -2.9657    0.0717 C.ar    1  LIG1       -0.0163
     33 C           0.0891   -2.5307   -3.7248 C.3     1  LIG1        0.0783
     34 C          -2.3514   -4.4416    0.7496 C.ar    1  LIG1       -0.0581
     35 C          -3.6422   -4.2561    0.2586 C.ar    1  LIG1       -0.0581
     36 C           5.7900   -1.1772   -1.7746 C.ar    1  LIG1        0.0315
     37 C           6.0654    0.6030   -0.3055 C.ar    1  LIG1        0.0315
     38 C           6.6391   -0.2569   -1.2102 C.ar    1  LIG1       -0.0254
     39 C          -5.1058   -0.3138   -0.1791 C.3     1  LIG1        0.0790
     40 H           0.4568   -3.3242   -5.4577 H       1  LIG1        0.2095
     41 H           1.3262    1.1860    2.8210 H       1  LIG1        0.1754
     42 H          -5.6051    1.1310    4.8813 H       1  LIG1        0.0238
     43 H          -6.9999    0.0983    5.2127 H       1  LIG1        0.0238
     44 H          -5.8833   -0.3127    3.9015 H       1  LIG1        0.0238
     45 H          -4.9606    0.9127    7.3478 H       1  LIG1        0.0238
     46 H          -4.5735   -0.6744    8.0284 H       1  LIG1        0.0238
     47 H          -6.2528   -0.2253    7.6923 H       1  LIG1        0.0238
     48 H          -5.7904   -2.6278    4.9740 H       1  LIG1        0.0238
     49 H          -6.7419   -2.1334    6.3672 H       1  LIG1        0.0238
     50 H          -5.1363   -2.8299    6.6122 H       1  LIG1        0.0238
     51 H          -3.6010   -2.7877    4.6646 H       1  LIG1        0.0621
     52 H          -3.2539    1.3204    5.9986 H       1  LIG1        0.0621
     53 H          -1.3001   -2.7293    3.9139 H       1  LIG1        0.0637
     54 H          -0.9364    1.3636    5.2144 H       1  LIG1        0.0637
     55 H          -0.5467   -3.7936   -2.1103 H       1  LIG1        0.0720
     56 H           1.1033   -3.2581   -1.9444 H       1  LIG1        0.0720
     57 H          -0.5546   -3.4888    1.4379 H       1  LIG1        0.0655
     58 H          -5.1618   -2.8693   -0.3069 H       1  LIG1        0.0655
     59 H          -0.9143   -2.2056   -4.0205 H       1  LIG1        0.0591
     60 H           0.7761   -1.6985   -3.9089 H       1  LIG1        0.0591
     61 H          -1.9640   -5.4459    0.9010 H       1  LIG1        0.0619
     62 H          -4.2603   -5.1192    0.0228 H       1  LIG1        0.0619
     63 H           6.1481   -1.9045   -2.4976 H       1  LIG1        0.0831
     64 H           6.6530    1.3684    0.1934 H       1  LIG1        0.0831
     65 H           7.6897   -0.2135   -1.4599 H       1  LIG1        0.0648
     66 H          -5.2683    0.7682   -0.1965 H       1  LIG1        0.0660
     67 H          -5.8127   -0.7439    0.5382 H       1  LIG1        0.0660
     68 H          -5.2863   -0.6933   -1.1902 H       1  LIG1        0.0660
@<TRIPOS>BOND
     1     1     2    2
     2     1     3    2
     3     1     8    1
     4     1    20    1
     5     4    24    1
     6     4    27    1
     7     5    25    1
     8     5    29    1
     9     6    30    1
    10     6    39    1
    11     7    33    1
    12     8    23    1
    13     9    23   ar
    14     9    26   ar
    15    10    25   ar
    16    10    26   ar
    17    11    28   ar
    18    11    36   ar
    19    12    28   ar
    20    12    37   ar
    21    13    14    1
    22    13    15    1
    23    13    16    1
    24    13    17    1
    25    14    18   ar
    26    14    19   ar
    27    18    21   ar
    28    19    22   ar
    29    20    21   ar
    30    20    22   ar
    31    23    24   ar
    32    24    25   ar
    33    26    28    1
    34    27    30   ar
    35    27    31   ar
    36    29    33    1
    37    30    32   ar
    38    31    34   ar
    39    32    35   ar
    40    34    35   ar
    41    36    38   ar
    42    37    38   ar
    43     7    40    1
    44     8    41    1
    45    15    42    1
    46    15    43    1
    47    15    44    1
    48    16    45    1
    49    16    46    1
    50    16    47    1
    51    17    48    1
    52    17    49    1
    53    17    50    1
    54    18    51    1
    55    19    52    1
    56    21    53    1
    57    22    54    1
    58    29    55    1
    59    29    56    1
    60    31    57    1
    61    32    58    1
    62    33    59    1
    63    33    60    1
    64    34    61    1
    65    35    62    1
    66    36    63    1
    67    37    64    1
    68    38    65    1
    69    39    66    1
    70    39    67    1
    71    39    68    1
@<TRIPOS>MOLECULE
104865
 68 71 0 0 0
SMALL
GASTEIGER

@<TRIPOS>ATOM
      1 S           0.6483   -0.4962    3.9541 S.O2    1  LIG1        0.0736
      2 O          -0.6566   -0.4978    4.5847 O.2     1  LIG1       -0.1499
      3 O           1.3070   -1.7380    3.6108 O.2     1  LIG1       -0.1499
      4 O          -1.3179   -0.7886    0.9830 O.3     1  LIG1       -0.4435
      5 O          -0.3461   -1.7553   -1.5293 O.3     1  LIG1       -0.4715
      6 O          -3.8333   -0.5464    0.2001 O.3     1  LIG1       -0.4914
      7 O          -0.2808   -4.1508   -4.2780 O.3     1  LIG1       -0.3917
      8 N           0.4942    0.5087    2.6076 N.pl3   1  LIG1       -0.1963
      9 N           2.2172    0.0089    1.1350 N.ar    1  LIG1       -0.2044
     10 N           1.8238   -1.1833   -0.8930 N.ar    1  LIG1       -0.1866
     11 N           4.5720   -1.3567   -1.2825 N.ar    1  LIG1       -0.2331
     12 N           4.8530    0.4616    0.2407 N.ar    1  LIG1       -0.2331
     13 C           4.3500    2.7265    7.6432 C.3     1  LIG1       -0.0127
     14 C           3.4468    1.9170    6.6931 C.ar    1  LIG1       -0.0419
     15 C           5.8555    2.4155    7.4905 C.3     1  LIG1       -0.0560
     16 C           3.9729    2.4269    9.1115 C.3     1  LIG1       -0.0560
     17 C           4.1615    4.2345    7.3711 C.3     1  LIG1       -0.0560
     18 C           2.0459    2.0561    6.7684 C.ar    1  LIG1       -0.0562
     19 C           3.9584    1.0275    5.7296 C.ar    1  LIG1       -0.0562
     20 C           1.7318    0.4618    4.9838 C.ar    1  LIG1        0.1086
     21 C           1.1931    1.3319    5.9305 C.ar    1  LIG1       -0.0348
     22 C           3.1118    0.3023    4.8812 C.ar    1  LIG1       -0.0348
     23 C           0.9050   -0.0935    1.3857 C.ar    1  LIG1        0.1883
     24 C          -0.0084   -0.7568    0.5909 C.ar    1  LIG1        0.2307
     25 C           0.5191   -1.2554   -0.5793 C.ar    1  LIG1        0.2642
     26 C           2.6437   -0.5625   -0.0119 C.ar    1  LIG1        0.2027
     27 C          -2.0347   -1.9538    0.7943 C.ar    1  LIG1        0.1702
     28 C           4.0921   -0.4858   -0.3591 C.ar    1  LIG1        0.1978
     29 C           0.2654   -2.6778   -2.4313 C.3     1  LIG1        0.1143
     30 C          -3.3697   -1.8247    0.3783 C.ar    1  LIG1        0.1621
     31 C          -1.4955   -3.2191    1.0600 C.ar    1  LIG1       -0.0157
     32 C          -4.1231   -2.9778    0.1387 C.ar    1  LIG1       -0.0163
     33 C          -0.8104   -3.1739   -3.3906 C.3     1  LIG1        0.0783
     34 C          -2.2597   -4.3615    0.8246 C.ar    1  LIG1       -0.0581
     35 C          -3.5658   -4.2415    0.3535 C.ar    1  LIG1       -0.0581
     36 C           5.8725   -1.2530   -1.6015 C.ar    1  LIG1        0.0315
     37 C           6.1459    0.5238   -0.1266 C.ar    1  LIG1        0.0315
     38 C           6.7166   -0.3170   -1.0527 C.ar    1  LIG1       -0.0254
     39 C          -5.2438   -0.3772    0.2670 C.3     1  LIG1        0.0790
     40 H          -1.0014   -4.4034   -4.8806 H       1  LIG1        0.2095
     41 H          -0.4824    0.8056    2.5733 H       1  LIG1        0.1754
     42 H           6.0705    1.3590    7.6904 H       1  LIG1        0.0238
     43 H           6.4542    3.0058    8.1947 H       1  LIG1        0.0238
     44 H           6.2180    2.6538    6.4839 H       1  LIG1        0.0238
     45 H           4.0560    1.3558    9.3294 H       1  LIG1        0.0238
     46 H           2.9484    2.7331    9.3491 H       1  LIG1        0.0238
     47 H           4.6327    2.9610    9.8059 H       1  LIG1        0.0238
     48 H           4.4015    4.4807    6.3300 H       1  LIG1        0.0238
     49 H           4.8132    4.8366    8.0150 H       1  LIG1        0.0238
     50 H           3.1332    4.5629    7.5577 H       1  LIG1        0.0238
     51 H           1.5955    2.7343    7.4910 H       1  LIG1        0.0621
     52 H           5.0278    0.8733    5.6127 H       1  LIG1        0.0621
     53 H           0.1170    1.4559    6.0277 H       1  LIG1        0.0637
     54 H           3.5369   -0.3777    4.1452 H       1  LIG1        0.0637
     55 H           0.6894   -3.5283   -1.8814 H       1  LIG1        0.0720
     56 H           1.0660   -2.2027   -3.0123 H       1  LIG1        0.0720
     57 H          -0.4849   -3.3302    1.4435 H       1  LIG1        0.0655
     58 H          -5.1434   -2.9232   -0.2271 H       1  LIG1        0.0655
     59 H          -1.6479   -3.6119   -2.8368 H       1  LIG1        0.0591
     60 H          -1.2052   -2.3377   -3.9784 H       1  LIG1        0.0591
     61 H          -1.8345   -5.3460    1.0086 H       1  LIG1        0.0619
     62 H          -4.1559   -5.1336    0.1612 H       1  LIG1        0.0619
     63 H           6.2268   -1.9666   -2.3401 H       1  LIG1        0.0831
     64 H           6.7284    1.2996    0.3593 H       1  LIG1        0.0831
     65 H           7.7572   -0.2477   -1.3315 H       1  LIG1        0.0648
     66 H          -5.4477    0.6944    0.3597 H       1  LIG1        0.0660
     67 H          -5.6709   -0.8728    1.1459 H       1  LIG1        0.0660
     68 H          -5.7196   -0.7292   -0.6538 H       1  LIG1        0.0660
@<TRIPOS>BOND
     1     1     2    2
     2     1     3    2
     3     1     8    1
     4     1    20    1
     5     4    24    1
     6     4    27    1
     7     5    25    1
     8     5    29    1
     9     6    30    1
    10     6    39    1
    11     7    33    1
    12     8    23    1
    13     9    23   ar
    14     9    26   ar
    15    10    25   ar
    16    10    26   ar
    17    11    28   ar
    18    11    36   ar
    19    12    28   ar
    20    12    37   ar
    21    13    14    1
    22    13    15    1
    23    13    16    1
    24    13    17    1
    25    14    18   ar
    26    14    19   ar
    27    18    21   ar
    28    19    22   ar
    29    20    21   ar
    30    20    22   ar
    31    23    24   ar
    32    24    25   ar
    33    26    28    1
    34    27    30   ar
    35    27    31   ar
    36    29    33    1
    37    30    32   ar
    38    31    34   ar
    39    32    35   ar
    40    34    35   ar
    41    36    38   ar
    42    37    38   ar
    43     7    40    1
    44     8    41    1
    45    15    42    1
    46    15    43    1
    47    15    44    1
    48    16    45    1
    49    16    46    1
    50    16    47    1
    51    17    48    1
    52    17    49    1
    53    17    50    1
    54    18    51    1
    55    19    52    1
    56    21    53    1
    57    22    54    1
    58    29    55    1
    59    29    56    1
    60    31    57    1
    61    32    58    1
    62    33    59    1
    63    33    60    1
    64    34    61    1
    65    35    62    1
    66    36    63    1
    67    37    64    1
    68    38    65    1
    69    39    66    1
    70    39    67    1
    71    39    68    1
@<TRIPOS>MOLECULE
104865
 68 71 0 0 0
SMALL
GASTEIGER

@<TRIPOS>ATOM
      1 S           0.8125   -0.6191    4.0394 S.O2    1  LIG1        0.0736
      2 O          -0.1689   -0.1976    5.0205 O.2     1  LIG1       -0.1499
      3 O           0.8643   -1.9962    3.5961 O.2     1  LIG1       -0.1499
      4 O          -1.3054   -0.7687    1.1078 O.3     1  LIG1       -0.4435
      5 O          -0.4512   -1.6335   -1.4811 O.3     1  LIG1       -0.4715
      6 O          -4.0294   -0.5288    0.1228 O.3     1  LIG1       -0.4914
      7 O           0.3074   -0.6154   -4.9303 O.3     1  LIG1       -0.3917
      8 N           0.5881    0.4007    2.7242 N.pl3   1  LIG1       -0.1963
      9 N           2.2470   -0.0571    1.1734 N.ar    1  LIG1       -0.2044
     10 N           1.7504   -1.0751   -0.9232 N.ar    1  LIG1       -0.1866
     11 N           4.5037   -1.3567   -1.3470 N.ar    1  LIG1       -0.2331
     12 N           4.8374    0.4598    0.1667 N.ar    1  LIG1       -0.2331
     13 C           6.2875    0.9042    6.3406 C.3     1  LIG1       -0.0127
     14 C           4.9285    0.5206    5.7283 C.ar    1  LIG1       -0.0419
     15 C           6.2194    0.7863    7.8792 C.3     1  LIG1       -0.0560
     16 C           6.6341    2.3586    5.9574 C.3     1  LIG1       -0.0560
     17 C           7.4582    0.0129    5.8682 C.3     1  LIG1       -0.0560
     18 C           3.7645    1.2281    6.0947 C.ar    1  LIG1       -0.0562
     19 C           4.7844   -0.5278    4.8010 C.ar    1  LIG1       -0.0562
     20 C           2.4052   -0.1415    4.6466 C.ar    1  LIG1        0.1086
     21 C           2.5130    0.8996    5.5676 C.ar    1  LIG1       -0.0348
     22 C           3.5359   -0.8634    4.2678 C.ar    1  LIG1       -0.0348
     23 C           0.9446   -0.1503    1.4648 C.ar    1  LIG1        0.1883
     24 C          -0.0102   -0.7468    0.6663 C.ar    1  LIG1        0.2307
     25 C           0.4581   -1.1563   -0.5625 C.ar    1  LIG1        0.2642
     26 C           2.6176   -0.5457   -0.0292 C.ar    1  LIG1        0.2027
     27 C          -2.0765   -1.8792    0.8505 C.ar    1  LIG1        0.1702
     28 C           4.0557   -0.4798   -0.4158 C.ar    1  LIG1        0.1978
     29 C           0.0271   -1.7760   -2.8194 C.3     1  LIG1        0.1143
     30 C          -3.3850   -1.7116    0.3748 C.ar    1  LIG1        0.1621
     31 C          -1.5804   -3.1707    1.0898 C.ar    1  LIG1       -0.0157
     32 C          -4.1411   -2.8446    0.0515 C.ar    1  LIG1       -0.0163
     33 C           0.0022   -0.4374   -3.5526 C.3     1  LIG1        0.0783
     34 C          -2.3515   -4.2905    0.7759 C.ar    1  LIG1       -0.0581
     35 C          -3.6279   -4.1277    0.2458 C.ar    1  LIG1       -0.0581
     36 C           5.8005   -1.2692   -1.6923 C.ar    1  LIG1        0.0315
     37 C           6.1236    0.5060   -0.2267 C.ar    1  LIG1        0.0315
     38 C           6.6649   -0.3439   -1.1610 C.ar    1  LIG1       -0.0254
     39 C          -3.6789    0.5802    0.9407 C.3     1  LIG1        0.0790
     40 H           0.2852    0.2670   -5.3387 H       1  LIG1        0.2095
     41 H          -0.3488    0.7958    2.7731 H       1  LIG1        0.1754
     42 H           5.4906    1.4772    8.3170 H       1  LIG1        0.0238
     43 H           7.1894    1.0143    8.3363 H       1  LIG1        0.0238
     44 H           5.9365   -0.2279    8.1851 H       1  LIG1        0.0238
     45 H           5.9054    3.0753    6.3518 H       1  LIG1        0.0238
     46 H           6.6622    2.4836    4.8685 H       1  LIG1        0.0238
     47 H           7.6150    2.6481    6.3521 H       1  LIG1        0.0238
     48 H           7.2957   -1.0388    6.1318 H       1  LIG1        0.0238
     49 H           8.4019    0.3201    6.3346 H       1  LIG1        0.0238
     50 H           7.6010    0.0754    4.7831 H       1  LIG1        0.0238
     51 H           3.8185    2.0482    6.8082 H       1  LIG1        0.0621
     52 H           5.6372   -1.1149    4.4712 H       1  LIG1        0.0621
     53 H           1.6339    1.4560    5.8849 H       1  LIG1        0.0637
     54 H           3.4577   -1.6837    3.5586 H       1  LIG1        0.0637
     55 H          -0.6585   -2.4651   -3.3274 H       1  LIG1        0.0720
     56 H           1.0083   -2.2639   -2.8759 H       1  LIG1        0.0720
     57 H          -0.5876   -3.3191    1.5084 H       1  LIG1        0.0655
     58 H          -5.1445   -2.7237   -0.3499 H       1  LIG1        0.0655
     59 H          -0.9891    0.0213   -3.4668 H       1  LIG1        0.0591
     60 H           0.7255    0.2613   -3.1204 H       1  LIG1        0.0591
     61 H          -1.9518   -5.2884    0.9391 H       1  LIG1        0.0619
     62 H          -4.2282   -4.9969   -0.0102 H       1  LIG1        0.0619
     63 H           6.1318   -1.9892   -2.4353 H       1  LIG1        0.0831
     64 H           6.7253    1.2761    0.2476 H       1  LIG1        0.0831
     65 H           7.7023   -0.2880   -1.4593 H       1  LIG1        0.0648
     66 H          -4.5127    1.2885    0.9174 H       1  LIG1        0.0660
     67 H          -2.8048    1.0944    0.5298 H       1  LIG1        0.0660
     68 H          -3.5196    0.2953    1.9866 H       1  LIG1        0.0660
@<TRIPOS>BOND
     1     1     2    2
     2     1     3    2
     3     1     8    1
     4     1    20    1
     5     4    24    1
     6     4    27    1
     7     5    25    1
     8     5    29    1
     9     6    30    1
    10     6    39    1
    11     7    33    1
    12     8    23    1
    13     9    23   ar
    14     9    26   ar
    15    10    25   ar
    16    10    26   ar
    17    11    28   ar
    18    11    36   ar
    19    12    28   ar
    20    12    37   ar
    21    13    14    1
    22    13    15    1
    23    13    16    1
    24    13    17    1
    25    14    18   ar
    26    14    19   ar
    27    18    21   ar
    28    19    22   ar
    29    20    21   ar
    30    20    22   ar
    31    23    24   ar
    32    24    25   ar
    33    26    28    1
    34    27    30   ar
    35    27    31   ar
    36    29    33    1
    37    30    32   ar
    38    31    34   ar
    39    32    35   ar
    40    34    35   ar
    41    36    38   ar
    42    37    38   ar
    43     7    40    1
    44     8    41    1
    45    15    42    1
    46    15    43    1
    47    15    44    1
    48    16    45    1
    49    16    46    1
    50    16    47    1
    51    17    48    1
    52    17    49    1
    53    17    50    1
    54    18    51    1
    55    19    52    1
    56    21    53    1
    57    22    54    1
    58    29    55    1
    59    29    56    1
    60    31    57    1
    61    32    58    1
    62    33    59    1
    63    33    60    1
    64    34    61    1
    65    35    62    1
    66    36    63    1
    67    37    64    1
    68    38    65    1
    69    39    66    1
    70    39    67    1
    71    39    68    1
@<TRIPOS>MOLECULE
104865
 68 71 0 0 0
SMALL
GASTEIGER

@<TRIPOS>ATOM
      1 S           0.7756   -0.5455    4.0661 S.O2    1  LIG1        0.0736
      2 O          -0.2148   -0.0290    4.9939 O.2     1  LIG1       -0.1499
      3 O           0.7853   -1.9460    3.7004 O.2     1  LIG1       -0.1499
      4 O          -1.2385   -0.9448    1.2137 O.3     1  LIG1       -0.4435
      5 O          -0.4357   -1.7393   -1.4336 O.3     1  LIG1       -0.4715
      6 O          -4.0701   -0.6164    0.4706 O.3     1  LIG1       -0.4914
      7 O          -1.3727    0.1861   -3.3711 O.3     1  LIG1       -0.3917
      8 N           0.6363    0.4112    2.6958 N.pl3   1  LIG1       -0.1963
      9 N           2.2822   -0.0912    1.1482 N.ar    1  LIG1       -0.2044
     10 N           1.7568   -1.1143   -0.9377 N.ar    1  LIG1       -0.1866
     11 N           4.3376   -0.5331   -1.8105 N.ar    1  LIG1       -0.2331
     12 N           5.0141   -0.4066    0.4783 N.ar    1  LIG1       -0.2331
     13 C           6.2697    0.9044    6.3606 C.3     1  LIG1       -0.0127
     14 C           4.9005    0.5300    5.7659 C.ar    1  LIG1       -0.0419
     15 C           6.2214    0.7935    7.8999 C.3     1  LIG1       -0.0560
     16 C           6.6217    2.3544    5.9655 C.3     1  LIG1       -0.0560
     17 C           7.4269    0.0023    5.8754 C.3     1  LIG1       -0.0560
     18 C           3.7464    1.2478    6.1430 C.ar    1  LIG1       -0.0562
     19 C           4.7410   -0.5148    4.8382 C.ar    1  LIG1       -0.0562
     20 C           2.3689   -0.0989    4.6936 C.ar    1  LIG1        0.1086
     21 C           2.4891    0.9362    5.6196 C.ar    1  LIG1       -0.0348
     22 C           3.4877   -0.8331    4.3084 C.ar    1  LIG1       -0.0348
     23 C           0.9881   -0.2136    1.4714 C.ar    1  LIG1        0.1883
     24 C           0.0321   -0.8571    0.7103 C.ar    1  LIG1        0.2307
     25 C           0.4777   -1.2359   -0.5372 C.ar    1  LIG1        0.2642
     26 C           2.6344   -0.5727   -0.0627 C.ar    1  LIG1        0.2027
     27 C          -2.0352   -2.0117    0.8665 C.ar    1  LIG1        0.1702
     28 C           4.0632   -0.4916   -0.4822 C.ar    1  LIG1        0.1978
     29 C          -0.0302   -1.7539   -2.8051 C.3     1  LIG1        0.1143
     30 C          -3.3726   -1.7943    0.5047 C.ar    1  LIG1        0.1621
     31 C          -1.5288   -3.3235    0.9117 C.ar    1  LIG1       -0.0157
     32 C          -4.1467   -2.8903    0.0980 C.ar    1  LIG1       -0.0163
     33 C          -0.0521   -0.3533   -3.4193 C.3     1  LIG1        0.0783
     34 C          -2.3117   -4.4006    0.4956 C.ar    1  LIG1       -0.0581
     35 C          -3.6189   -4.1821    0.0761 C.ar    1  LIG1       -0.0581
     36 C           5.6344   -0.4863   -2.1649 C.ar    1  LIG1        0.0315
     37 C           6.2932   -0.3673    0.0615 C.ar    1  LIG1        0.0315
     38 C           6.6650   -0.4050   -1.2610 C.ar    1  LIG1       -0.0254
     39 C          -3.4590    0.5570    0.9810 C.3     1  LIG1        0.0790
     40 H          -1.3160    1.1094   -3.6687 H       1  LIG1        0.2095
     41 H          -0.2777    0.8590    2.7021 H       1  LIG1        0.1754
     42 H           5.5010    1.4886    8.3446 H       1  LIG1        0.0238
     43 H           7.1984    1.0199    8.3429 H       1  LIG1        0.0238
     44 H           5.9393   -0.2185    8.2139 H       1  LIG1        0.0238
     45 H           5.9023    3.0782    6.3641 H       1  LIG1        0.0238
     46 H           6.6378    2.4732    4.8755 H       1  LIG1        0.0238
     47 H           7.6092    2.6393    6.3468 H       1  LIG1        0.0238
     48 H           7.2592   -1.0472    6.1446 H       1  LIG1        0.0238
     49 H           8.3793    0.3033    6.3278 H       1  LIG1        0.0238
     50 H           7.5555    0.0598    4.7882 H       1  LIG1        0.0238
     51 H           3.8132    2.0656    6.8581 H       1  LIG1        0.0621
     52 H           5.5841   -1.1099    4.4991 H       1  LIG1        0.0621
     53 H           1.6179    1.5030    5.9406 H       1  LIG1        0.0637
     54 H           3.3971   -1.6462    3.5920 H       1  LIG1        0.0637
     55 H          -0.7675   -2.3773   -3.3240 H       1  LIG1        0.0720
     56 H           0.9423   -2.2435   -2.9332 H       1  LIG1        0.0720
     57 H          -0.5123   -3.5148    1.2475 H       1  LIG1        0.0655
     58 H          -5.1774   -2.7300   -0.2103 H       1  LIG1        0.0655
     59 H           0.6082    0.3340   -2.8834 H       1  LIG1        0.0591
     60 H           0.2565   -0.3988   -4.4677 H       1  LIG1        0.0591
     61 H          -1.8982   -5.4057    0.4926 H       1  LIG1        0.0619
     62 H          -4.2333   -5.0132   -0.2594 H       1  LIG1        0.0619
     63 H           5.8249   -0.5197   -3.2340 H       1  LIG1        0.0831
     64 H           7.0361   -0.3050    0.8516 H       1  LIG1        0.0831
     65 H           7.7003   -0.3736   -1.5702 H       1  LIG1        0.0648
     66 H          -4.2108    1.3521    0.9793 H       1  LIG1        0.0660
     67 H          -2.6406    0.8847    0.3326 H       1  LIG1        0.0660
     68 H          -3.1314    0.4259    2.0178 H       1  LIG1        0.0660
@<TRIPOS>BOND
     1     1     2    2
     2     1     3    2
     3     1     8    1
     4     1    20    1
     5     4    24    1
     6     4    27    1
     7     5    25    1
     8     5    29    1
     9     6    30    1
    10     6    39    1
    11     7    33    1
    12     8    23    1
    13     9    23   ar
    14     9    26   ar
    15    10    25   ar
    16    10    26   ar
    17    11    28   ar
    18    11    36   ar
    19    12    28   ar
    20    12    37   ar
    21    13    14    1
    22    13    15    1
    23    13    16    1
    24    13    17    1
    25    14    18   ar
    26    14    19   ar
    27    18    21   ar
    28    19    22   ar
    29    20    21   ar
    30    20    22   ar
    31    23    24   ar
    32    24    25   ar
    33    26    28    1
    34    27    30   ar
    35    27    31   ar
    36    29    33    1
    37    30    32   ar
    38    31    34   ar
    39    32    35   ar
    40    34    35   ar
    41    36    38   ar
    42    37    38   ar
    43     7    40    1
    44     8    41    1
    45    15    42    1
    46    15    43    1
    47    15    44    1
    48    16    45    1
    49    16    46    1
    50    16    47    1
    51    17    48    1
    52    17    49    1
    53    17    50    1
    54    18    51    1
    55    19    52    1
    56    21    53    1
    57    22    54    1
    58    29    55    1
    59    29    56    1
    60    31    57    1
    61    32    58    1
    62    33    59    1
    63    33    60    1
    64    34    61    1
    65    35    62    1
    66    36    63    1
    67    37    64    1
    68    38    65    1
    69    39    66    1
    70    39    67    1
    71    39    68    1
@<TRIPOS>MOLECULE
104865
 68 71 0 0 0
SMALL
GASTEIGER

@<TRIPOS>ATOM
      1 S           0.8209   -0.6492    4.0687 S.O2    1  LIG1        0.0736
      2 O          -0.1590   -0.2225    5.0482 O.2     1  LIG1       -0.1499
      3 O           0.8794   -2.0298    3.6370 O.2     1  LIG1       -0.1499
      4 O          -1.3107   -0.8250    1.1493 O.3     1  LIG1       -0.4435
      5 O          -0.4836   -1.6168   -1.4747 O.3     1  LIG1       -0.4715
      6 O          -4.1023   -0.5904    0.2674 O.3     1  LIG1       -0.4914
      7 O          -1.2914    0.2144   -3.5990 O.3     1  LIG1       -0.3917
      8 N           0.5873    0.3575    2.7455 N.pl3   1  LIG1       -0.1963
      9 N           2.2412   -0.1074    1.1882 N.ar    1  LIG1       -0.2044
     10 N           1.7220   -1.0633   -0.9314 N.ar    1  LIG1       -0.1866
     11 N           4.9688   -0.3325    0.5363 N.ar    1  LIG1       -0.2331
     12 N           4.3332   -0.5912   -1.7521 N.ar    1  LIG1       -0.2331
     13 C           6.2952    0.9104    6.3460 C.3     1  LIG1       -0.0127
     14 C           4.9362    0.5220    5.7365 C.ar    1  LIG1       -0.0419
     15 C           6.2332    0.7917    7.8849 C.3     1  LIG1       -0.0560
     16 C           6.6341    2.3662    5.9620 C.3     1  LIG1       -0.0560
     17 C           7.4676    0.0231    5.8701 C.3     1  LIG1       -0.0560
     18 C           3.7674    1.2108    6.1215 C.ar    1  LIG1       -0.0562
     19 C           4.7983   -0.5120    4.7929 C.ar    1  LIG1       -0.0562
     20 C           2.4139   -0.1563    4.6662 C.ar    1  LIG1        0.1086
     21 C           2.5152    0.8737    5.6000 C.ar    1  LIG1       -0.0348
     22 C           3.5495   -0.8550    4.2647 C.ar    1  LIG1       -0.0348
     23 C           0.9394   -0.1981    1.4883 C.ar    1  LIG1        0.1883
     24 C          -0.0227   -0.7820    0.6887 C.ar    1  LIG1        0.2307
     25 C           0.4327   -1.1566   -0.5562 C.ar    1  LIG1        0.2642
     26 C           2.6007   -0.5617   -0.0316 C.ar    1  LIG1        0.2027
     27 C          -2.0838   -1.9287    0.8677 C.ar    1  LIG1        0.1702
     28 C           4.0353   -0.4891   -0.4322 C.ar    1  LIG1        0.1978
     29 C          -0.0233   -1.7035   -2.8276 C.3     1  LIG1        0.1143
     30 C          -3.4093   -1.7588    0.4419 C.ar    1  LIG1        0.1621
     31 C          -1.5685   -3.2244    1.0461 C.ar    1  LIG1       -0.0157
     32 C          -4.1627   -2.8931    0.1096 C.ar    1  LIG1       -0.0163
     33 C           0.0248   -0.3288   -3.4965 C.3     1  LIG1        0.0783
     34 C          -2.3358   -4.3426    0.7179 C.ar    1  LIG1       -0.0581
     35 C          -3.6302   -4.1765    0.2374 C.ar    1  LIG1       -0.0581
     36 C           6.2531   -0.2789    0.1379 C.ar    1  LIG1        0.0315
     37 C           5.6342   -0.5292   -2.0888 C.ar    1  LIG1        0.0315
     38 C           6.6474   -0.3729   -1.1750 C.ar    1  LIG1       -0.0254
     39 C          -3.6032    0.5860    0.8841 C.3     1  LIG1        0.0790
     40 H          -1.2014    1.1207   -3.9377 H       1  LIG1        0.2095
     41 H          -0.3517    0.7477    2.7952 H       1  LIG1        0.1754
     42 H           5.5063    1.4821    8.3264 H       1  LIG1        0.0238
     43 H           7.2049    1.0197    8.3385 H       1  LIG1        0.0238
     44 H           5.9518   -0.2229    8.1912 H       1  LIG1        0.0238
     45 H           5.9013    3.0789    6.3564 H       1  LIG1        0.0238
     46 H           6.6609    2.4909    4.8730 H       1  LIG1        0.0238
     47 H           7.6138    2.6608    6.3559 H       1  LIG1        0.0238
     48 H           7.3057   -1.0300    6.1285 H       1  LIG1        0.0238
     49 H           8.4106    0.3292    6.3385 H       1  LIG1        0.0238
     50 H           7.6115    0.0907    4.7855 H       1  LIG1        0.0238
     51 H           3.8168    2.0221    6.8452 H       1  LIG1        0.0621
     52 H           5.6548   -1.0821    4.4440 H       1  LIG1        0.0621
     53 H           1.6320    1.4140    5.9326 H       1  LIG1        0.0637
     54 H           3.4771   -1.6626    3.5397 H       1  LIG1        0.0637
     55 H          -0.7563   -2.3272   -3.3520 H       1  LIG1        0.0720
     56 H           0.9387   -2.2254   -2.8946 H       1  LIG1        0.0720
     57 H          -0.5627   -3.3761    1.4311 H       1  LIG1        0.0655
     58 H          -5.1817   -2.7706   -0.2506 H       1  LIG1        0.0655
     59 H           0.6332    0.3791   -2.9271 H       1  LIG1        0.0591
     60 H           0.4314   -0.4175   -4.5081 H       1  LIG1        0.0591
     61 H          -1.9205   -5.3405    0.8331 H       1  LIG1        0.0619
     62 H          -4.2310   -5.0419   -0.0294 H       1  LIG1        0.0619
     63 H           6.9805   -0.1543    0.9350 H       1  LIG1        0.0831
     64 H           5.8430   -0.6121   -3.1517 H       1  LIG1        0.0831
     65 H           7.6863   -0.3271   -1.4700 H       1  LIG1        0.0648
     66 H          -4.3944    1.3413    0.8499 H       1  LIG1        0.0660
     67 H          -2.7509    0.9848    0.3256 H       1  LIG1        0.0660
     68 H          -3.3568    0.4226    1.9389 H       1  LIG1        0.0660
@<TRIPOS>BOND
     1     1     2    2
     2     1     3    2
     3     1     8    1
     4     1    20    1
     5     4    24    1
     6     4    27    1
     7     5    25    1
     8     5    29    1
     9     6    30    1
    10     6    39    1
    11     7    33    1
    12     8    23    1
    13     9    23   ar
    14     9    26   ar
    15    10    25   ar
    16    10    26   ar
    17    11    28   ar
    18    11    36   ar
    19    12    28   ar
    20    12    37   ar
    21    13    14    1
    22    13    15    1
    23    13    16    1
    24    13    17    1
    25    14    18   ar
    26    14    19   ar
    27    18    21   ar
    28    19    22   ar
    29    20    21   ar
    30    20    22   ar
    31    23    24   ar
    32    24    25   ar
    33    26    28    1
    34    27    30   ar
    35    27    31   ar
    36    29    33    1
    37    30    32   ar
    38    31    34   ar
    39    32    35   ar
    40    34    35   ar
    41    36    38   ar
    42    37    38   ar
    43     7    40    1
    44     8    41    1
    45    15    42    1
    46    15    43    1
    47    15    44    1
    48    16    45    1
    49    16    46    1
    50    16    47    1
    51    17    48    1
    52    17    49    1
    53    17    50    1
    54    18    51    1
    55    19    52    1
    56    21    53    1
    57    22    54    1
    58    29    55    1
    59    29    56    1
    60    31    57    1
    61    32    58    1
    62    33    59    1
    63    33    60    1
    64    34    61    1
    65    35    62    1
    66    36    63    1
    67    37    64    1
    68    38    65    1
    69    39    66    1
    70    39    67    1
    71    39    68    1
@<TRIPOS>MOLECULE
104865
 68 71 0 0 0
SMALL
GASTEIGER

@<TRIPOS>ATOM
      1 S           0.7065   -0.6504    3.9318 S.O2    1  LIG1        0.0736
      2 O           1.0272   -1.9822    3.4592 O.2     1  LIG1       -0.1499
      3 O           1.4930   -0.0065    4.9627 O.2     1  LIG1       -0.1499
      4 O          -1.3008   -0.9316    1.0980 O.3     1  LIG1       -0.4435
      5 O          -0.4244   -1.8367   -1.4913 O.3     1  LIG1       -0.4715
      6 O          -3.7722   -0.5457    0.2320 O.3     1  LIG1       -0.4914
      7 O           0.4311   -3.6693   -4.5390 O.3     1  LIG1       -0.3917
      8 N           0.6448    0.4323    2.6362 N.pl3   1  LIG1       -0.1963
      9 N           2.1893    0.0626    1.0063 N.ar    1  LIG1       -0.2044
     10 N           1.7299   -1.1335   -1.0006 N.ar    1  LIG1       -0.1866
     11 N           4.4916   -1.2805   -1.4472 N.ar    1  LIG1       -0.2331
     12 N           4.7644    0.5802    0.0264 N.ar    1  LIG1       -0.2331
     13 C          -5.1065   -0.7294    5.9004 C.3     1  LIG1       -0.0127
     14 C          -3.6371   -0.6908    5.4438 C.ar    1  LIG1       -0.0419
     15 C          -6.0154   -0.6729    4.6543 C.3     1  LIG1       -0.0560
     16 C          -5.5028    0.4439    6.8238 C.3     1  LIG1       -0.0560
     17 C          -5.3975   -2.0314    6.6810 C.3     1  LIG1       -0.0560
     18 C          -3.0959   -1.7810    4.7349 C.ar    1  LIG1       -0.0562
     19 C          -2.7935    0.4107    5.6811 C.ar    1  LIG1       -0.0562
     20 C          -0.9744   -0.6583    4.5042 C.ar    1  LIG1        0.1086
     21 C          -1.7732   -1.7773    4.2900 C.ar    1  LIG1       -0.0348
     22 C          -1.4718    0.4308    5.2174 C.ar    1  LIG1       -0.0348
     23 C           0.9140   -0.1398    1.3634 C.ar    1  LIG1        0.1883
     24 C          -0.0201   -0.8419    0.6281 C.ar    1  LIG1        0.2307
     25 C           0.4592   -1.2975   -0.5847 C.ar    1  LIG1        0.2642
     26 C           2.5712   -0.4809   -0.1690 C.ar    1  LIG1        0.2027
     27 C          -2.0502   -2.0496    0.7933 C.ar    1  LIG1        0.1702
     28 C           4.0076   -0.3812   -0.5562 C.ar    1  LIG1        0.1978
     29 C           0.1110   -2.9135   -2.2634 C.3     1  LIG1        0.1143
     30 C          -3.3670   -1.8500    0.3476 C.ar    1  LIG1        0.1621
     31 C          -1.5512   -3.3444    0.9896 C.ar    1  LIG1       -0.0157
     32 C          -4.1539   -2.9654    0.0467 C.ar    1  LIG1       -0.0163
     33 C           0.0478   -2.5547   -3.7414 C.3     1  LIG1        0.0783
     34 C          -2.3462   -4.4470    0.6851 C.ar    1  LIG1       -0.0581
     35 C          -3.6416   -4.2572    0.2084 C.ar    1  LIG1       -0.0581
     36 C           5.8021   -1.2021   -1.7388 C.ar    1  LIG1        0.0315
     37 C           6.0662    0.6145   -0.3125 C.ar    1  LIG1        0.0315
     38 C           6.6456   -0.2642   -1.1956 C.ar    1  LIG1       -0.0254
     39 C          -5.1115   -0.3121   -0.1792 C.3     1  LIG1        0.0790
     40 H           0.3926   -3.3768   -5.4657 H       1  LIG1        0.2095
     41 H           1.3157    1.1772    2.8260 H       1  LIG1        0.1754
     42 H          -5.8326    0.2388    4.0729 H       1  LIG1        0.0238
     43 H          -7.0746   -0.6821    4.9363 H       1  LIG1        0.0238
     44 H          -5.8497   -1.5254    3.9857 H       1  LIG1        0.0238
     45 H          -5.4065    1.4109    6.3172 H       1  LIG1        0.0238
     46 H          -4.8838    0.4683    7.7283 H       1  LIG1        0.0238
     47 H          -6.5476    0.3569    7.1460 H       1  LIG1        0.0238
     48 H          -5.2809   -2.9264    6.0605 H       1  LIG1        0.0238
     49 H          -6.4267   -2.0442    7.0587 H       1  LIG1        0.0238
     50 H          -4.7248   -2.1348    7.5405 H       1  LIG1        0.0238
     51 H          -3.7027   -2.6552    4.5086 H       1  LIG1        0.0621
     52 H          -3.1431    1.2824    6.2280 H       1  LIG1        0.0621
     53 H          -1.3864   -2.6478    3.7687 H       1  LIG1        0.0637
     54 H          -0.8432    1.2947    5.4197 H       1  LIG1        0.0637
     55 H          -0.5211   -3.7910   -2.0815 H       1  LIG1        0.0720
     56 H           1.1244   -3.2243   -1.9783 H       1  LIG1        0.0720
     57 H          -0.5466   -3.5013    1.3745 H       1  LIG1        0.0655
     58 H          -5.1701   -2.8658   -0.3194 H       1  LIG1        0.0655
     59 H          -0.9703   -2.2589   -4.0175 H       1  LIG1        0.0591
     60 H           0.7104   -1.7113   -3.9609 H       1  LIG1        0.0591
     61 H          -1.9550   -5.4526    0.8176 H       1  LIG1        0.0619
     62 H          -4.2597   -5.1182   -0.0352 H       1  LIG1        0.0619
     63 H           6.1647   -1.9451   -2.4435 H       1  LIG1        0.0831
     64 H           6.6495    1.3948    0.1680 H       1  LIG1        0.0831
     65 H           7.6963   -0.2216   -1.4451 H       1  LIG1        0.0648
     66 H          -5.2762    0.7697   -0.1826 H       1  LIG1        0.0660
     67 H          -5.8259   -0.7542    0.5231 H       1  LIG1        0.0660
     68 H          -5.2788   -0.6771   -1.1979 H       1  LIG1        0.0660
@<TRIPOS>BOND
     1     1     2    2
     2     1     3    2
     3     1     8    1
     4     1    20    1
     5     4    24    1
     6     4    27    1
     7     5    25    1
     8     5    29    1
     9     6    30    1
    10     6    39    1
    11     7    33    1
    12     8    23    1
    13     9    23   ar
    14     9    26   ar
    15    10    25   ar
    16    10    26   ar
    17    11    28   ar
    18    11    36   ar
    19    12    28   ar
    20    12    37   ar
    21    13    14    1
    22    13    15    1
    23    13    16    1
    24    13    17    1
    25    14    18   ar
    26    14    19   ar
    27    18    21   ar
    28    19    22   ar
    29    20    21   ar
    30    20    22   ar
    31    23    24   ar
    32    24    25   ar
    33    26    28    1
    34    27    30   ar
    35    27    31   ar
    36    29    33    1
    37    30    32   ar
    38    31    34   ar
    39    32    35   ar
    40    34    35   ar
    41    36    38   ar
    42    37    38   ar
    43     7    40    1
    44     8    41    1
    45    15    42    1
    46    15    43    1
    47    15    44    1
    48    16    45    1
    49    16    46    1
    50    16    47    1
    51    17    48    1
    52    17    49    1
    53    17    50    1
    54    18    51    1
    55    19    52    1
    56    21    53    1
    57    22    54    1
    58    29    55    1
    59    29    56    1
    60    31    57    1
    61    32    58    1
    62    33    59    1
    63    33    60    1
    64    34    61    1
    65    35    62    1
    66    36    63    1
    67    37    64    1
    68    38    65    1
    69    39    66    1
    70    39    67    1
    71    39    68    1
@<TRIPOS>MOLECULE
104865
 68 71 0 0 0
SMALL
GASTEIGER

@<TRIPOS>ATOM
      1 S           0.6767   -0.6916    3.9334 S.O2    1  LIG1        0.0736
      2 O           0.9850   -2.0191    3.4475 O.2     1  LIG1       -0.1499
      3 O           1.4653   -0.0661    4.9769 O.2     1  LIG1       -0.1499
      4 O          -1.3124   -0.9279    1.0824 O.3     1  LIG1       -0.4435
      5 O          -0.4417   -1.7497   -1.5322 O.3     1  LIG1       -0.4715
      6 O          -3.8626   -0.6232    0.3974 O.3     1  LIG1       -0.4914
      7 O           0.4193   -3.6380   -4.5468 O.3     1  LIG1       -0.3917
      8 N           0.6318    0.4085    2.6532 N.pl3   1  LIG1       -0.1963
      9 N           2.1826    0.0542    1.0249 N.ar    1  LIG1       -0.2044
     10 N           1.7102   -1.0516   -1.0297 N.ar    1  LIG1       -0.1866
     11 N           4.9025   -0.1062    0.4259 N.ar    1  LIG1       -0.2331
     12 N           4.3362   -0.5522   -1.8508 N.ar    1  LIG1       -0.2331
     13 C          -5.1133   -0.7703    5.9751 C.3     1  LIG1       -0.0127
     14 C          -3.6576   -0.7215    5.4771 C.ar    1  LIG1       -0.0419
     15 C          -5.3611   -2.0648    6.7826 C.3     1  LIG1       -0.0560
     16 C          -6.0614   -0.7453    4.7582 C.3     1  LIG1       -0.0560
     17 C          -5.4990    0.4116    6.8919 C.3     1  LIG1       -0.0560
     18 C          -3.1308   -1.8046    4.7462 C.ar    1  LIG1       -0.0562
     19 C          -2.8085    0.3765    5.7097 C.ar    1  LIG1       -0.0562
     20 C          -1.0064   -0.6884    4.5021 C.ar    1  LIG1        0.1086
     21 C          -1.8141   -1.8006    4.2824 C.ar    1  LIG1       -0.0348
     22 C          -1.4928    0.3964    5.2292 C.ar    1  LIG1       -0.0348
     23 C           0.9044   -0.1454    1.3731 C.ar    1  LIG1        0.1883
     24 C          -0.0323   -0.8204    0.6171 C.ar    1  LIG1        0.2307
     25 C           0.4420   -1.2327   -0.6128 C.ar    1  LIG1        0.2642
     26 C           2.5593   -0.4433   -0.1727 C.ar    1  LIG1        0.2027
     27 C          -2.0361   -2.0683    0.8006 C.ar    1  LIG1        0.1702
     28 C           3.9987   -0.3496   -0.5542 C.ar    1  LIG1        0.1978
     29 C           0.0867   -2.8424   -2.2878 C.3     1  LIG1        0.1143
     30 C          -3.3868   -1.9079    0.4591 C.ar    1  LIG1        0.1621
     31 C          -1.4913   -3.3521    0.9355 C.ar    1  LIG1       -0.0157
     32 C          -4.1561   -3.0354    0.1579 C.ar    1  LIG1       -0.0163
     33 C           0.0282   -2.5096   -3.7719 C.3     1  LIG1        0.0783
     34 C          -2.2715   -4.4720    0.6496 C.ar    1  LIG1       -0.0581
     35 C          -3.5969   -4.3128    0.2489 C.ar    1  LIG1       -0.0581
     36 C           6.1990   -0.0903    0.0681 C.ar    1  LIG1        0.0315
     37 C           5.6475   -0.5133   -2.1498 C.ar    1  LIG1        0.0315
     38 C           6.6331   -0.2898   -1.2194 C.ar    1  LIG1       -0.0254
     39 C          -5.2366   -0.4689    0.7339 C.3     1  LIG1        0.0790
     40 H           0.3813   -3.3636   -5.4790 H       1  LIG1        0.2095
     41 H           1.3089    1.1436    2.8581 H       1  LIG1        0.1754
     42 H          -5.2430   -2.9669    6.1727 H       1  LIG1        0.0238
     43 H          -6.3800   -2.0897    7.1866 H       1  LIG1        0.0238
     44 H          -4.6650   -2.1429    7.6261 H       1  LIG1        0.0238
     45 H          -5.9135   -1.6127    4.1051 H       1  LIG1        0.0238
     46 H          -5.9018    0.1539    4.1512 H       1  LIG1        0.0238
     47 H          -7.1111   -0.7531    5.0735 H       1  LIG1        0.0238
     48 H          -4.8601    0.4539    7.7818 H       1  LIG1        0.0238
     49 H          -6.5351    0.3195    7.2396 H       1  LIG1        0.0238
     50 H          -5.4226    1.3722    6.3699 H       1  LIG1        0.0238
     51 H          -3.7424   -2.6770    4.5249 H       1  LIG1        0.0621
     52 H          -3.1463    1.2429    6.2724 H       1  LIG1        0.0621
     53 H          -1.4368   -2.6682    3.7488 H       1  LIG1        0.0637
     54 H          -0.8577    1.2550    5.4347 H       1  LIG1        0.0637
     55 H          -0.5496   -3.7140   -2.0926 H       1  LIG1        0.0720
     56 H           1.0989   -3.1538   -1.9983 H       1  LIG1        0.0720
     57 H          -0.4630   -3.4909    1.2596 H       1  LIG1        0.0655
     58 H          -5.1875   -2.9435   -0.1668 H       1  LIG1        0.0655
     59 H          -0.9897   -2.2229   -4.0576 H       1  LIG1        0.0591
     60 H           0.6894   -1.6685   -4.0039 H       1  LIG1        0.0591
     61 H          -1.8427   -5.4677    0.7321 H       1  LIG1        0.0619
     62 H          -4.1985   -5.1859    0.0073 H       1  LIG1        0.0619
     63 H           6.9005    0.0889    0.8780 H       1  LIG1        0.0831
     64 H           5.8888   -0.6785   -3.1959 H       1  LIG1        0.0831
     65 H           7.6813   -0.2738   -1.4826 H       1  LIG1        0.0648
     66 H          -5.4073    0.5860    0.9692 H       1  LIG1        0.0660
     67 H          -5.5086   -1.0548    1.6187 H       1  LIG1        0.0660
     68 H          -5.8727   -0.7303   -0.1173 H       1  LIG1        0.0660
@<TRIPOS>BOND
     1     1     2    2
     2     1     3    2
     3     1     8    1
     4     1    20    1
     5     4    24    1
     6     4    27    1
     7     5    25    1
     8     5    29    1
     9     6    30    1
    10     6    39    1
    11     7    33    1
    12     8    23    1
    13     9    23   ar
    14     9    26   ar
    15    10    25   ar
    16    10    26   ar
    17    11    28   ar
    18    11    36   ar
    19    12    28   ar
    20    12    37   ar
    21    13    14    1
    22    13    15    1
    23    13    16    1
    24    13    17    1
    25    14    18   ar
    26    14    19   ar
    27    18    21   ar
    28    19    22   ar
    29    20    21   ar
    30    20    22   ar
    31    23    24   ar
    32    24    25   ar
    33    26    28    1
    34    27    30   ar
    35    27    31   ar
    36    29    33    1
    37    30    32   ar
    38    31    34   ar
    39    32    35   ar
    40    34    35   ar
    41    36    38   ar
    42    37    38   ar
    43     7    40    1
    44     8    41    1
    45    15    42    1
    46    15    43    1
    47    15    44    1
    48    16    45    1
    49    16    46    1
    50    16    47    1
    51    17    48    1
    52    17    49    1
    53    17    50    1
    54    18    51    1
    55    19    52    1
    56    21    53    1
    57    22    54    1
    58    29    55    1
    59    29    56    1
    60    31    57    1
    61    32    58    1
    62    33    59    1
    63    33    60    1
    64    34    61    1
    65    35    62    1
    66    36    63    1
    67    37    64    1
    68    38    65    1
    69    39    66    1
    70    39    67    1
    71    39    68    1
@<TRIPOS>MOLECULE
104865
 68 71 0 0 0
SMALL
GASTEIGER

@<TRIPOS>ATOM
      1 S           0.7943   -0.5496    3.9958 S.O2    1  LIG1        0.0736
      2 O          -0.1899   -0.0961    4.9594 O.2     1  LIG1       -0.1499
      3 O           0.8285   -1.9346    3.5787 O.2     1  LIG1       -0.1499
      4 O          -1.2871   -0.8048    1.1083 O.3     1  LIG1       -0.4435
      5 O          -0.4141   -1.8386   -1.4281 O.3     1  LIG1       -0.4715
      6 O          -3.9755   -0.5322    0.0681 O.3     1  LIG1       -0.4914
      7 O          -0.3163   -0.6835   -4.9046 O.3     1  LIG1       -0.3917
      8 N           0.5976    0.4525    2.6604 N.pl3   1  LIG1       -0.1963
      9 N           2.2469   -0.0202    1.1078 N.ar    1  LIG1       -0.2044
     10 N           1.7595   -1.1378   -0.9396 N.ar    1  LIG1       -0.1866
     11 N           4.5139   -1.3522   -1.3911 N.ar    1  LIG1       -0.2331
     12 N           4.8318    0.4777    0.1094 N.ar    1  LIG1       -0.2331
     13 C           6.2729    0.9068    6.3299 C.3     1  LIG1       -0.0127
     14 C           4.9138    0.5398    5.7087 C.ar    1  LIG1       -0.0419
     15 C           6.1974    0.7809    7.8677 C.3     1  LIG1       -0.0560
     16 C           6.6352    2.3603    5.9569 C.3     1  LIG1       -0.0560
     17 C           7.4386    0.0078    5.8583 C.3     1  LIG1       -0.0560
     18 C           3.7547    1.2559    6.0751 C.ar    1  LIG1       -0.0562
     19 C           4.7642   -0.5004    4.7731 C.ar    1  LIG1       -0.0562
     20 C           2.3901   -0.0895    4.6112 C.ar    1  LIG1        0.1086
     21 C           2.5024    0.9440    5.5399 C.ar    1  LIG1       -0.0348
     22 C           3.5144   -0.8190    4.2320 C.ar    1  LIG1       -0.0348
     23 C           0.9496   -0.1307    1.4147 C.ar    1  LIG1        0.1883
     24 C           0.0019   -0.7811    0.6482 C.ar    1  LIG1        0.2307
     25 C           0.4724   -1.2364   -0.5649 C.ar    1  LIG1        0.2642
     26 C           2.6196   -0.5470   -0.0780 C.ar    1  LIG1        0.2027
     27 C          -2.0692   -1.9067    0.8547 C.ar    1  LIG1        0.1702
     28 C           4.0566   -0.4698   -0.4698 C.ar    1  LIG1        0.1978
     29 C          -0.0401   -1.8641   -2.8051 C.3     1  LIG1        0.1143
     30 C          -3.3653   -1.7263    0.3514 C.ar    1  LIG1        0.1621
     31 C          -1.5969   -3.2000    1.1247 C.ar    1  LIG1       -0.0157
     32 C          -4.1326   -2.8507    0.0285 C.ar    1  LIG1       -0.0163
     33 C          -0.5632   -0.6148   -3.5061 C.3     1  LIG1        0.0783
     34 C          -2.3788   -4.3123    0.8115 C.ar    1  LIG1       -0.0581
     35 C          -3.6422   -4.1381    0.2528 C.ar    1  LIG1       -0.0581
     36 C           5.8126   -1.2618   -1.7292 C.ar    1  LIG1        0.0315
     37 C           6.1203    0.5258   -0.2759 C.ar    1  LIG1        0.0315
     38 C           6.6706   -0.3296   -1.1994 C.ar    1  LIG1       -0.0254
     39 C          -3.6718    0.5522    0.9378 C.3     1  LIG1        0.0790
     40 H          -0.7113    0.1126   -5.2999 H       1  LIG1        0.2095
     41 H          -0.3332    0.8619    2.6961 H       1  LIG1        0.1754
     42 H           5.4722    1.4748    8.3063 H       1  LIG1        0.0238
     43 H           7.1672    0.9986    8.3306 H       1  LIG1        0.0238
     44 H           5.9054   -0.2329    8.1665 H       1  LIG1        0.0238
     45 H           5.9106    3.0811    6.3511 H       1  LIG1        0.0238
     46 H           6.6705    2.4908    4.8688 H       1  LIG1        0.0238
     47 H           7.6165    2.6389    6.3585 H       1  LIG1        0.0238
     48 H           7.2653   -1.0440    6.1149 H       1  LIG1        0.0238
     49 H           8.3826    0.3035    6.3315 H       1  LIG1        0.0238
     50 H           7.5878    0.0752    4.7744 H       1  LIG1        0.0238
     51 H           3.8134    2.0702    6.7953 H       1  LIG1        0.0621
     52 H           5.6132   -1.0932    4.4434 H       1  LIG1        0.0621
     53 H           1.6276    1.5060    5.8581 H       1  LIG1        0.0637
     54 H           3.4315   -1.6345    3.5169 H       1  LIG1        0.0637
     55 H          -0.5211   -2.7439   -3.2497 H       1  LIG1        0.0720
     56 H           1.0322   -2.0118   -2.9792 H       1  LIG1        0.0720
     57 H          -0.6129   -3.3538    1.5616 H       1  LIG1        0.0655
     58 H          -5.1253   -2.7206   -0.3954 H       1  LIG1        0.0655
     59 H          -1.6420   -0.5146   -3.3418 H       1  LIG1        0.0591
     60 H          -0.0839    0.2841   -3.1049 H       1  LIG1        0.0591
     61 H          -1.9970   -5.3134    0.9956 H       1  LIG1        0.0619
     62 H          -4.2496   -5.0025   -0.0030 H       1  LIG1        0.0619
     63 H           6.1512   -1.9863   -2.4644 H       1  LIG1        0.0831
     64 H           6.7161    1.3014    0.1969 H       1  LIG1        0.0831
     65 H           7.7099   -0.2728   -1.4909 H       1  LIG1        0.0648
     66 H          -4.5110    1.2536    0.9027 H       1  LIG1        0.0660
     67 H          -2.7862    1.0866    0.5807 H       1  LIG1        0.0660
     68 H          -3.5507    0.2358    1.9799 H       1  LIG1        0.0660
@<TRIPOS>BOND
     1     1     2    2
     2     1     3    2
     3     1     8    1
     4     1    20    1
     5     4    24    1
     6     4    27    1
     7     5    25    1
     8     5    29    1
     9     6    30    1
    10     6    39    1
    11     7    33    1
    12     8    23    1
    13     9    23   ar
    14     9    26   ar
    15    10    25   ar
    16    10    26   ar
    17    11    28   ar
    18    11    36   ar
    19    12    28   ar
    20    12    37   ar
    21    13    14    1
    22    13    15    1
    23    13    16    1
    24    13    17    1
    25    14    18   ar
    26    14    19   ar
    27    18    21   ar
    28    19    22   ar
    29    20    21   ar
    30    20    22   ar
    31    23    24   ar
    32    24    25   ar
    33    26    28    1
    34    27    30   ar
    35    27    31   ar
    36    29    33    1
    37    30    32   ar
    38    31    34   ar
    39    32    35   ar
    40    34    35   ar
    41    36    38   ar
    42    37    38   ar
    43     7    40    1
    44     8    41    1
    45    15    42    1
    46    15    43    1
    47    15    44    1
    48    16    45    1
    49    16    46    1
    50    16    47    1
    51    17    48    1
    52    17    49    1
    53    17    50    1
    54    18    51    1
    55    19    52    1
    56    21    53    1
    57    22    54    1
    58    29    55    1
    59    29    56    1
    60    31    57    1
    61    32    58    1
    62    33    59    1
    63    33    60    1
    64    34    61    1
    65    35    62    1
    66    36    63    1
    67    37    64    1
    68    38    65    1
    69    39    66    1
    70    39    67    1
    71    39    68    1
@<TRIPOS>MOLECULE
104865
 68 71 0 0 0
SMALL
GASTEIGER

@<TRIPOS>ATOM
      1 S           0.6841   -0.5750    3.9236 S.O2    1  LIG1        0.0736
      2 O           1.0319   -1.9079    3.4816 O.2     1  LIG1       -0.1499
      3 O           1.4608    0.1114    4.9375 O.2     1  LIG1       -0.1499
      4 O          -1.3214   -0.9410    1.0808 O.3     1  LIG1       -0.4435
      5 O          -0.4292   -1.8375   -1.5056 O.3     1  LIG1       -0.4715
      6 O          -3.8742   -0.6245    0.3985 O.3     1  LIG1       -0.4914
      7 O           0.3988   -3.7007   -4.5422 O.3     1  LIG1       -0.3917
      8 N           0.5948    0.4779    2.6055 N.pl3   1  LIG1       -0.1963
      9 N           2.1599    0.0914    0.9952 N.ar    1  LIG1       -0.2044
     10 N           1.7184   -1.1255   -1.0029 N.ar    1  LIG1       -0.1866
     11 N           4.4818   -1.3191   -1.3954 N.ar    1  LIG1       -0.2331
     12 N           4.7463    0.6008    0.0023 N.ar    1  LIG1       -0.2331
     13 C          -5.1018   -0.7771    5.9707 C.3     1  LIG1       -0.0127
     14 C          -3.6441   -0.7001    5.4822 C.ar    1  LIG1       -0.0419
     15 C          -5.3354   -2.0866    6.7575 C.3     1  LIG1       -0.0560
     16 C          -6.0429   -0.7488    4.7481 C.3     1  LIG1       -0.0560
     17 C          -5.5114    0.3862    6.9006 C.3     1  LIG1       -0.0560
     18 C          -3.1026   -1.7594    4.7280 C.ar    1  LIG1       -0.0562
     19 C          -2.8081    0.4015    5.7441 C.ar    1  LIG1       -0.0562
     20 C          -0.9947   -0.6073    4.5045 C.ar    1  LIG1        0.1086
     21 C          -1.7866   -1.7264    4.2640 C.ar    1  LIG1       -0.0348
     22 C          -1.4935    0.4512    5.2617 C.ar    1  LIG1       -0.0348
     23 C           0.8825   -0.1143    1.3453 C.ar    1  LIG1        0.1883
     24 C          -0.0410   -0.8349    0.6138 C.ar    1  LIG1        0.2307
     25 C           0.4465   -1.2924   -0.5950 C.ar    1  LIG1        0.2642
     26 C           2.5527   -0.4662   -0.1699 C.ar    1  LIG1        0.2027
     27 C          -2.0513   -2.0772    0.7983 C.ar    1  LIG1        0.1702
     28 C           3.9928   -0.3827   -0.5456 C.ar    1  LIG1        0.1978
     29 C           0.1147   -2.9141   -2.2726 C.3     1  LIG1        0.1143
     30 C          -3.3996   -1.9100    0.4515 C.ar    1  LIG1        0.1621
     31 C          -1.5140   -3.3644    0.9324 C.ar    1  LIG1       -0.0157
     32 C          -4.1706   -3.0322    0.1349 C.ar    1  LIG1       -0.0163
     33 C          -0.0024   -2.5854   -3.7543 C.3     1  LIG1        0.0783
     34 C          -2.2955   -4.4792    0.6307 C.ar    1  LIG1       -0.0581
     35 C          -3.6164   -4.3122    0.2187 C.ar    1  LIG1       -0.0581
     36 C           5.7936   -1.2539   -1.6833 C.ar    1  LIG1        0.0315
     37 C           6.0500    0.6202   -0.3317 C.ar    1  LIG1        0.0315
     38 C           6.6340   -0.2940   -1.1753 C.ar    1  LIG1       -0.0254
     39 C          -5.2424   -0.4735    0.7610 C.3     1  LIG1        0.0790
     40 H           0.3207   -3.4288   -5.4727 H       1  LIG1        0.2095
     41 H           1.2465    1.2432    2.7802 H       1  LIG1        0.1754
     42 H          -5.1950   -2.9779    6.1364 H       1  LIG1        0.0238
     43 H          -6.3579   -2.1347    7.1501 H       1  LIG1        0.0238
     44 H          -4.6468   -2.1646    7.6070 H       1  LIG1        0.0238
     45 H          -5.8829   -1.6083    4.0877 H       1  LIG1        0.0238
     46 H          -5.8883    0.1580    4.1511 H       1  LIG1        0.0238
     47 H          -7.0945   -0.7701    5.0565 H       1  LIG1        0.0238
     48 H          -4.8824    0.4234    7.7976 H       1  LIG1        0.0238
     49 H          -6.5497    0.2760    7.2361 H       1  LIG1        0.0238
     50 H          -5.4417    1.3552    6.3933 H       1  LIG1        0.0238
     51 H          -3.7021   -2.6346    4.4863 H       1  LIG1        0.0621
     52 H          -3.1564    1.2484    6.3296 H       1  LIG1        0.0621
     53 H          -1.3972   -2.5762    3.7112 H       1  LIG1        0.0637
     54 H          -0.8698    1.3131    5.4881 H       1  LIG1        0.0637
     55 H          -0.4849   -3.8064   -2.0565 H       1  LIG1        0.0720
     56 H           1.1455   -3.1895   -2.0158 H       1  LIG1        0.0720
     57 H          -0.4879   -3.5092    1.2610 H       1  LIG1        0.0655
     58 H          -5.1988   -2.9328   -0.1975 H       1  LIG1        0.0655
     59 H          -1.0376   -2.3308   -4.0068 H       1  LIG1        0.0591
     60 H           0.6238   -1.7237   -4.0070 H       1  LIG1        0.0591
     61 H          -1.8701   -5.4769    0.7067 H       1  LIG1        0.0619
     62 H          -4.2182   -5.1809   -0.0376 H       1  LIG1        0.0619
     63 H           6.1592   -2.0257   -2.3546 H       1  LIG1        0.0831
     64 H           6.6315    1.4197    0.1184 H       1  LIG1        0.0831
     65 H           7.6857   -0.2615   -1.4219 H       1  LIG1        0.0648
     66 H          -5.4063    0.5763    1.0225 H       1  LIG1        0.0660
     67 H          -5.5036   -1.0783    1.6363 H       1  LIG1        0.0660
     68 H          -5.8922   -0.7148   -0.0858 H       1  LIG1        0.0660
@<TRIPOS>BOND
     1     1     2    2
     2     1     3    2
     3     1     8    1
     4     1    20    1
     5     4    24    1
     6     4    27    1
     7     5    25    1
     8     5    29    1
     9     6    30    1
    10     6    39    1
    11     7    33    1
    12     8    23    1
    13     9    23   ar
    14     9    26   ar
    15    10    25   ar
    16    10    26   ar
    17    11    28   ar
    18    11    36   ar
    19    12    28   ar
    20    12    37   ar
    21    13    14    1
    22    13    15    1
    23    13    16    1
    24    13    17    1
    25    14    18   ar
    26    14    19   ar
    27    18    21   ar
    28    19    22   ar
    29    20    21   ar
    30    20    22   ar
    31    23    24   ar
    32    24    25   ar
    33    26    28    1
    34    27    30   ar
    35    27    31   ar
    36    29    33    1
    37    30    32   ar
    38    31    34   ar
    39    32    35   ar
    40    34    35   ar
    41    36    38   ar
    42    37    38   ar
    43     7    40    1
    44     8    41    1
    45    15    42    1
    46    15    43    1
    47    15    44    1
    48    16    45    1
    49    16    46    1
    50    16    47    1
    51    17    48    1
    52    17    49    1
    53    17    50    1
    54    18    51    1
    55    19    52    1
    56    21    53    1
    57    22    54    1
    58    29    55    1
    59    29    56    1
    60    31    57    1
    61    32    58    1
    62    33    59    1
    63    33    60    1
    64    34    61    1
    65    35    62    1
    66    36    63    1
    67    37    64    1
    68    38    65    1
    69    39    66    1
    70    39    67    1
    71    39    68    1
@<TRIPOS>MOLECULE
104865
 68 71 0 0 0
SMALL
GASTEIGER

@<TRIPOS>ATOM
      1 S           0.6370   -0.5987    3.9692 S.O2    1  LIG1        0.0736
      2 O           0.8730    0.2271    5.1371 O.2     1  LIG1       -0.1499
      3 O          -0.5264   -1.4544    3.8906 O.2     1  LIG1       -0.1499
      4 O          -1.3372   -0.9203    1.1147 O.3     1  LIG1       -0.4435
      5 O          -0.4841   -1.8627   -1.4613 O.3     1  LIG1       -0.4715
      6 O          -3.8941   -0.5834    0.4101 O.3     1  LIG1       -0.4914
      7 O          -1.3301   -2.5320   -4.2447 O.3     1  LIG1       -0.3917
      8 N           0.6662    0.4335    2.6397 N.pl3   1  LIG1       -0.1963
      9 N           2.1670    0.0290    1.0002 N.ar    1  LIG1       -0.2044
     10 N           1.6783   -1.1438   -1.0068 N.ar    1  LIG1       -0.1866
     11 N           4.3024   -0.6968   -1.8633 N.ar    1  LIG1       -0.2331
     12 N           4.8694   -0.0340    0.3607 N.ar    1  LIG1       -0.2331
     13 C           5.6029   -4.0947    3.0994 C.3     1  LIG1       -0.0127
     14 C           4.3418   -3.2451    3.3379 C.ar    1  LIG1       -0.0419
     15 C           6.2931   -4.3666    4.4516 C.3     1  LIG1       -0.0560
     16 C           6.5806   -3.3448    2.1674 C.3     1  LIG1       -0.0560
     17 C           5.3165   -5.4631    2.4395 C.3     1  LIG1       -0.0560
     18 C           4.4584   -1.9236    3.8197 C.ar    1  LIG1       -0.0562
     19 C           3.0466   -3.7411    3.1099 C.ar    1  LIG1       -0.0562
     20 C           2.0702   -1.6284    3.7550 C.ar    1  LIG1        0.1086
     21 C           3.3359   -1.1179    4.0291 C.ar    1  LIG1       -0.0348
     22 C           1.9183   -2.9458    3.3244 C.ar    1  LIG1       -0.0348
     23 C           0.8908   -0.1522    1.3685 C.ar    1  LIG1        0.1883
     24 C          -0.0576   -0.8423    0.6416 C.ar    1  LIG1        0.2307
     25 C           0.4078   -1.2985   -0.5782 C.ar    1  LIG1        0.2642
     26 C           2.5337   -0.5018   -0.1836 C.ar    1  LIG1        0.2027
     27 C          -2.0860   -2.0500    0.8581 C.ar    1  LIG1        0.1702
     28 C           3.9677   -0.3991   -0.5844 C.ar    1  LIG1        0.1978
     29 C           0.0686   -2.8837   -2.3024 C.3     1  LIG1        0.1143
     30 C          -3.4298   -1.8711    0.5038 C.ar    1  LIG1        0.1621
     31 C          -1.5717   -3.3437    1.0100 C.ar    1  LIG1       -0.0157
     32 C          -4.2188   -2.9859    0.2032 C.ar    1  LIG1       -0.0163
     33 C           0.0093   -2.4346   -3.7584 C.3     1  LIG1        0.0783
     34 C          -2.3694   -4.4525    0.7269 C.ar    1  LIG1       -0.0581
     35 C          -3.6870   -4.2730    0.3111 C.ar    1  LIG1       -0.0581
     36 C           5.6067   -0.6128   -2.1844 C.ar    1  LIG1        0.0315
     37 C           6.1590    0.0204   -0.0173 C.ar    1  LIG1        0.0315
     38 C           6.5888   -0.2604   -1.2909 C.ar    1  LIG1       -0.0254
     39 C          -5.2113   -0.4054    0.9219 C.3     1  LIG1        0.0790
     40 H          -1.3584   -2.0681   -5.0980 H       1  LIG1        0.2095
     41 H           1.3117    1.2012    2.8126 H       1  LIG1        0.1754
     42 H           6.6149   -3.4416    4.9428 H       1  LIG1        0.0238
     43 H           7.1838   -4.9922    4.3223 H       1  LIG1        0.0238
     44 H           5.6178   -4.8867    5.1416 H       1  LIG1        0.0238
     45 H           6.9437   -2.4101    2.6078 H       1  LIG1        0.0238
     46 H           6.1018   -3.0967    1.2128 H       1  LIG1        0.0238
     47 H           7.4643   -3.9555    1.9484 H       1  LIG1        0.0238
     48 H           4.6838   -6.0951    3.0732 H       1  LIG1        0.0238
     49 H           6.2451   -6.0188    2.2624 H       1  LIG1        0.0238
     50 H           4.8189   -5.3446    1.4696 H       1  LIG1        0.0238
     51 H           5.4360   -1.4984    4.0363 H       1  LIG1        0.0621
     52 H           2.8808   -4.7573    2.7628 H       1  LIG1        0.0621
     53 H           3.4616   -0.1003    4.3903 H       1  LIG1        0.0637
     54 H           0.9305   -3.3642    3.1521 H       1  LIG1        0.0637
     55 H          -0.5566   -3.7730   -2.1632 H       1  LIG1        0.0720
     56 H           1.0913   -3.1668   -2.0277 H       1  LIG1        0.0720
     57 H          -0.5499   -3.4993    1.3349 H       1  LIG1        0.0655
     58 H          -5.2428   -2.8709   -0.1365 H       1  LIG1        0.0655
     59 H           0.3392   -1.3968   -3.8655 H       1  LIG1        0.0591
     60 H           0.6305   -3.0850   -4.3807 H       1  LIG1        0.0591
     61 H          -1.9611   -5.4551    0.8225 H       1  LIG1        0.0619
     62 H          -4.3030   -5.1354    0.0702 H       1  LIG1        0.0619
     63 H           5.8453   -0.8475   -3.2177 H       1  LIG1        0.0831
     64 H           6.8593    0.3045    0.7631 H       1  LIG1        0.0831
     65 H           7.6311   -0.2067   -1.5721 H       1  LIG1        0.0648
     66 H          -5.3489    0.6603    1.1283 H       1  LIG1        0.0660
     67 H          -5.3636   -0.9494    1.8614 H       1  LIG1        0.0660
     68 H          -5.9565   -0.7007    0.1769 H       1  LIG1        0.0660
@<TRIPOS>BOND
     1     1     2    2
     2     1     3    2
     3     1     8    1
     4     1    20    1
     5     4    24    1
     6     4    27    1
     7     5    25    1
     8     5    29    1
     9     6    30    1
    10     6    39    1
    11     7    33    1
    12     8    23    1
    13     9    23   ar
    14     9    26   ar
    15    10    25   ar
    16    10    26   ar
    17    11    28   ar
    18    11    36   ar
    19    12    28   ar
    20    12    37   ar
    21    13    14    1
    22    13    15    1
    23    13    16    1
    24    13    17    1
    25    14    18   ar
    26    14    19   ar
    27    18    21   ar
    28    19    22   ar
    29    20    21   ar
    30    20    22   ar
    31    23    24   ar
    32    24    25   ar
    33    26    28    1
    34    27    30   ar
    35    27    31   ar
    36    29    33    1
    37    30    32   ar
    38    31    34   ar
    39    32    35   ar
    40    34    35   ar
    41    36    38   ar
    42    37    38   ar
    43     7    40    1
    44     8    41    1
    45    15    42    1
    46    15    43    1
    47    15    44    1
    48    16    45    1
    49    16    46    1
    50    16    47    1
    51    17    48    1
    52    17    49    1
    53    17    50    1
    54    18    51    1
    55    19    52    1
    56    21    53    1
    57    22    54    1
    58    29    55    1
    59    29    56    1
    60    31    57    1
    61    32    58    1
    62    33    59    1
    63    33    60    1
    64    34    61    1
    65    35    62    1
    66    36    63    1
    67    37    64    1
    68    38    65    1
    69    39    66    1
    70    39    67    1
    71    39    68    1
@<TRIPOS>MOLECULE
104865
 68 71 0 0 0
SMALL
GASTEIGER

@<TRIPOS>ATOM
      1 S           0.8179   -0.6038    4.0419 S.O2    1  LIG1        0.0736
      2 O          -0.1681   -0.1663    5.0111 O.2     1  LIG1       -0.1499
      3 O           0.8599   -1.9844    3.6058 O.2     1  LIG1       -0.1499
      4 O          -1.2952   -0.7242    1.0932 O.3     1  LIG1       -0.4435
      5 O          -0.4717   -1.5188   -1.5069 O.3     1  LIG1       -0.4715
      6 O          -4.0139   -0.4942    0.0994 O.3     1  LIG1       -0.4914
      7 O          -0.8594   -1.4138   -5.1253 O.3     1  LIG1       -0.3917
      8 N           0.6181    0.4104    2.7189 N.pl3   1  LIG1       -0.1963
      9 N           2.2729   -0.0879    1.1721 N.ar    1  LIG1       -0.2044
     10 N           1.7565   -1.0842   -0.9339 N.ar    1  LIG1       -0.1866
     11 N           4.5151   -1.4101   -1.3501 N.ar    1  LIG1       -0.2331
     12 N           4.8570    0.4173    0.1493 N.ar    1  LIG1       -0.2331
     13 C           6.2946    0.9033    6.3481 C.3     1  LIG1       -0.0127
     14 C           4.9344    0.5202    5.7375 C.ar    1  LIG1       -0.0419
     15 C           6.2282    0.7863    7.8868 C.3     1  LIG1       -0.0560
     16 C           6.6411    2.3574    5.9635 C.3     1  LIG1       -0.0560
     17 C           7.4640    0.0112    5.8744 C.3     1  LIG1       -0.0560
     18 C           3.7717    1.2277    6.1067 C.ar    1  LIG1       -0.0562
     19 C           4.7896   -0.5267    4.8089 C.ar    1  LIG1       -0.0562
     20 C           2.4116   -0.1382    4.6570 C.ar    1  LIG1        0.1086
     21 C           2.5197    0.9010    5.5795 C.ar    1  LIG1       -0.0348
     22 C           3.5402   -0.8599    4.2755 C.ar    1  LIG1       -0.0348
     23 C           0.9684   -0.1500    1.4638 C.ar    1  LIG1        0.1883
     24 C           0.0022   -0.7155    0.6582 C.ar    1  LIG1        0.2307
     25 C           0.4605   -1.1136   -0.5781 C.ar    1  LIG1        0.2642
     26 C           2.6332   -0.5794   -0.0346 C.ar    1  LIG1        0.2027
     27 C          -2.0648   -1.8388    0.8411 C.ar    1  LIG1        0.1702
     28 C           4.0716   -0.5259   -0.4234 C.ar    1  LIG1        0.1978
     29 C          -0.0109   -1.5466   -2.8560 C.3     1  LIG1        0.1143
     30 C          -3.3716   -1.6761    0.3598 C.ar    1  LIG1        0.1621
     31 C          -1.5665   -3.1290    1.0841 C.ar    1  LIG1       -0.0157
     32 C          -4.1245   -2.8114    0.0366 C.ar    1  LIG1       -0.0163
     33 C          -1.2366   -1.4182   -3.7552 C.3     1  LIG1        0.0783
     34 C          -2.3342   -4.2513    0.7709 C.ar    1  LIG1       -0.0581
     35 C          -3.6095   -4.0929    0.2363 C.ar    1  LIG1       -0.0581
     36 C           5.8096   -1.3220   -1.7043 C.ar    1  LIG1        0.0315
     37 C           6.1400    0.4635   -0.2532 C.ar    1  LIG1        0.0315
     38 C           6.6761   -0.3911   -1.1857 C.ar    1  LIG1       -0.0254
     39 C          -3.6833    0.6080    0.9362 C.3     1  LIG1        0.0790
     40 H          -1.6749   -1.2810   -5.6392 H       1  LIG1        0.2095
     41 H          -0.3093    0.8278    2.7618 H       1  LIG1        0.1754
     42 H           5.5008    1.4781    8.3252 H       1  LIG1        0.0238
     43 H           7.1991    1.0134    8.3426 H       1  LIG1        0.0238
     44 H           5.9446   -0.2275    8.1934 H       1  LIG1        0.0238
     45 H           5.9131    3.0747    6.3582 H       1  LIG1        0.0238
     46 H           6.6679    2.4816    4.8744 H       1  LIG1        0.0238
     47 H           7.6227    2.6469    6.3567 H       1  LIG1        0.0238
     48 H           7.3006   -1.0404    6.1379 H       1  LIG1        0.0238
     49 H           8.4085    0.3174    6.3401 H       1  LIG1        0.0238
     50 H           7.6060    0.0738    4.7892 H       1  LIG1        0.0238
     51 H           3.8264    2.0467    6.8209 H       1  LIG1        0.0621
     52 H           5.6415   -1.1130    4.4766 H       1  LIG1        0.0621
     53 H           1.6411    1.4580    5.8973 H       1  LIG1        0.0637
     54 H           3.4613   -1.6775    3.5626 H       1  LIG1        0.0637
     55 H           0.5076   -2.4926   -3.0530 H       1  LIG1        0.0720
     56 H           0.6734   -0.7199   -3.0860 H       1  LIG1        0.0720
     57 H          -0.5746   -3.2750    1.5064 H       1  LIG1        0.0655
     58 H          -5.1274   -2.6937   -0.3670 H       1  LIG1        0.0655
     59 H          -1.9342   -2.2436   -3.5764 H       1  LIG1        0.0591
     60 H          -1.7670   -0.4856   -3.5321 H       1  LIG1        0.0591
     61 H          -1.9329   -5.2479    0.9393 H       1  LIG1        0.0619
     62 H          -4.2073   -4.9644   -0.0172 H       1  LIG1        0.0619
     63 H           6.1375   -2.0459   -2.4451 H       1  LIG1        0.0831
     64 H           6.7431    1.2385    0.2117 H       1  LIG1        0.0831
     65 H           7.7110   -0.3342   -1.4927 H       1  LIG1        0.0648
     66 H          -4.5239    1.3077    0.9131 H       1  LIG1        0.0660
     67 H          -2.8100    1.1356    0.5416 H       1  LIG1        0.0660
     68 H          -3.5320    0.3109    1.9802 H       1  LIG1        0.0660
@<TRIPOS>BOND
     1     1     2    2
     2     1     3    2
     3     1     8    1
     4     1    20    1
     5     4    24    1
     6     4    27    1
     7     5    25    1
     8     5    29    1
     9     6    30    1
    10     6    39    1
    11     7    33    1
    12     8    23    1
    13     9    23   ar
    14     9    26   ar
    15    10    25   ar
    16    10    26   ar
    17    11    28   ar
    18    11    36   ar
    19    12    28   ar
    20    12    37   ar
    21    13    14    1
    22    13    15    1
    23    13    16    1
    24    13    17    1
    25    14    18   ar
    26    14    19   ar
    27    18    21   ar
    28    19    22   ar
    29    20    21   ar
    30    20    22   ar
    31    23    24   ar
    32    24    25   ar
    33    26    28    1
    34    27    30   ar
    35    27    31   ar
    36    29    33    1
    37    30    32   ar
    38    31    34   ar
    39    32    35   ar
    40    34    35   ar
    41    36    38   ar
    42    37    38   ar
    43     7    40    1
    44     8    41    1
    45    15    42    1
    46    15    43    1
    47    15    44    1
    48    16    45    1
    49    16    46    1
    50    16    47    1
    51    17    48    1
    52    17    49    1
    53    17    50    1
    54    18    51    1
    55    19    52    1
    56    21    53    1
    57    22    54    1
    58    29    55    1
    59    29    56    1
    60    31    57    1
    61    32    58    1
    62    33    59    1
    63    33    60    1
    64    34    61    1
    65    35    62    1
    66    36    63    1
    67    37    64    1
    68    38    65    1
    69    39    66    1
    70    39    67    1
    71    39    68    1
@<TRIPOS>MOLECULE
104865
 68 71 0 0 0
SMALL
GASTEIGER

@<TRIPOS>ATOM
      1 S           0.1683    1.9828    2.6218 S.O2    1  LIG1        0.0736
      2 O           0.1842    2.4677    1.2584 O.2     1  LIG1       -0.1499
      3 O          -1.0146    2.1263    3.4474 O.2     1  LIG1       -0.1499
      4 O          -1.3085   -0.9073    1.1165 O.3     1  LIG1       -0.4435
      5 O          -0.4531   -1.7315   -1.5099 O.3     1  LIG1       -0.4715
      6 O          -3.7571   -0.5471    0.1992 O.3     1  LIG1       -0.4914
      7 O           0.4559   -3.5438   -4.5557 O.3     1  LIG1       -0.3917
      8 N           0.5620    0.3424    2.6902 N.pl3   1  LIG1       -0.1963
      9 N           2.2071   -0.0380    1.1004 N.ar    1  LIG1       -0.2044
     10 N           1.7157   -1.0782   -0.9907 N.ar    1  LIG1       -0.1866
     11 N           4.3290   -0.5811   -1.8181 N.ar    1  LIG1       -0.2331
     12 N           4.9200   -0.1099    0.4464 N.ar    1  LIG1       -0.2331
     13 C           4.7062    4.8337    5.6091 C.3     1  LIG1       -0.0127
     14 C           3.5747    4.0780    4.8883 C.ar    1  LIG1       -0.0419
     15 C           4.8290    6.2555    5.0204 C.3     1  LIG1       -0.0560
     16 C           6.0436    4.0864    5.4176 C.3     1  LIG1       -0.0560
     17 C           4.4859    4.9860    7.1317 C.3     1  LIG1       -0.0560
     18 C           3.6651    3.8185    3.5038 C.ar    1  LIG1       -0.0562
     19 C           2.4174    3.6388    5.5545 C.ar    1  LIG1       -0.0562
     20 C           1.5145    2.7301    3.5037 C.ar    1  LIG1        0.1086
     21 C           2.6470    3.1532    2.8131 C.ar    1  LIG1       -0.0348
     22 C           1.3922    2.9762    4.8713 C.ar    1  LIG1       -0.0348
     23 C           0.9218   -0.2156    1.4324 C.ar    1  LIG1        0.1883
     24 C          -0.0292   -0.8224    0.6384 C.ar    1  LIG1        0.2307
     25 C           0.4391   -1.2314   -0.5909 C.ar    1  LIG1        0.2642
     26 C           2.5713   -0.4929   -0.1189 C.ar    1  LIG1        0.2027
     27 C          -2.0486   -2.0340    0.8291 C.ar    1  LIG1        0.1702
     28 C           4.0061   -0.3771   -0.5170 C.ar    1  LIG1        0.1978
     29 C           0.0611   -2.8145   -2.2857 C.3     1  LIG1        0.1143
     30 C          -3.3550   -1.8478    0.3489 C.ar    1  LIG1        0.1621
     31 C          -1.5492   -3.3201    1.0685 C.ar    1  LIG1       -0.0157
     32 C          -4.1315   -2.9706    0.0532 C.ar    1  LIG1       -0.0163
     33 C           0.0942   -2.4226   -3.7559 C.3     1  LIG1        0.0783
     34 C          -2.3339   -4.4314    0.7679 C.ar    1  LIG1       -0.0581
     35 C          -3.6187   -4.2564    0.2554 C.ar    1  LIG1       -0.0581
     36 C           5.6331   -0.5062   -2.1405 C.ar    1  LIG1        0.0315
     37 C           6.2093   -0.0567    0.0656 C.ar    1  LIG1        0.0315
     38 C           6.6273   -0.2483   -1.2287 C.ar    1  LIG1       -0.0254
     39 C          -5.0914   -0.3183   -0.2303 C.3     1  LIG1        0.0790
     40 H           0.4766   -3.2331   -5.4769 H       1  LIG1        0.2095
     41 H          -0.2299   -0.1315    3.1241 H       1  LIG1        0.1754
     42 H           5.0881    6.2412    3.9560 H       1  LIG1        0.0238
     43 H           5.6086    6.8302    5.5341 H       1  LIG1        0.0238
     44 H           3.8869    6.8074    5.1220 H       1  LIG1        0.0238
     45 H           6.3453    4.0371    4.3658 H       1  LIG1        0.0238
     46 H           5.9768    3.0575    5.7905 H       1  LIG1        0.0238
     47 H           6.8560    4.5854    5.9589 H       1  LIG1        0.0238
     48 H           3.5781    5.5590    7.3541 H       1  LIG1        0.0238
     49 H           5.3223    5.5179    7.6010 H       1  LIG1        0.0238
     50 H           4.4045    4.0111    7.6264 H       1  LIG1        0.0238
     51 H           4.5349    4.1436    2.9361 H       1  LIG1        0.0621
     52 H           2.2753    3.8100    6.6184 H       1  LIG1        0.0621
     53 H           2.7441    2.9762    1.7441 H       1  LIG1        0.0637
     54 H           0.5015    2.6685    5.4145 H       1  LIG1        0.0637
     55 H          -0.6256   -3.6599   -2.1570 H       1  LIG1        0.0720
     56 H           1.0396   -3.1876   -1.9553 H       1  LIG1        0.0720
     57 H          -0.5542   -3.4662    1.4780 H       1  LIG1        0.0655
     58 H          -5.1391   -2.8808   -0.3385 H       1  LIG1        0.0655
     59 H          -0.8905   -2.0653   -4.0766 H       1  LIG1        0.0591
     60 H           0.8135   -1.6146   -3.9240 H       1  LIG1        0.0591
     61 H          -1.9458   -5.4335    0.9318 H       1  LIG1        0.0619
     62 H          -4.2288   -5.1244    0.0168 H       1  LIG1        0.0619
     63 H           5.8603   -0.6689   -3.1900 H       1  LIG1        0.0831
     64 H           6.9192    0.1483    0.8616 H       1  LIG1        0.0831
     65 H           7.6694   -0.2008   -1.5109 H       1  LIG1        0.0648
     66 H          -5.2538    0.7636   -0.2536 H       1  LIG1        0.0660
     67 H          -5.8135   -0.7474    0.4721 H       1  LIG1        0.0660
     68 H          -5.2486   -0.7010   -1.2438 H       1  LIG1        0.0660
@<TRIPOS>BOND
     1     1     2    2
     2     1     3    2
     3     1     8    1
     4     1    20    1
     5     4    24    1
     6     4    27    1
     7     5    25    1
     8     5    29    1
     9     6    30    1
    10     6    39    1
    11     7    33    1
    12     8    23    1
    13     9    23   ar
    14     9    26   ar
    15    10    25   ar
    16    10    26   ar
    17    11    28   ar
    18    11    36   ar
    19    12    28   ar
    20    12    37   ar
    21    13    14    1
    22    13    15    1
    23    13    16    1
    24    13    17    1
    25    14    18   ar
    26    14    19   ar
    27    18    21   ar
    28    19    22   ar
    29    20    21   ar
    30    20    22   ar
    31    23    24   ar
    32    24    25   ar
    33    26    28    1
    34    27    30   ar
    35    27    31   ar
    36    29    33    1
    37    30    32   ar
    38    31    34   ar
    39    32    35   ar
    40    34    35   ar
    41    36    38   ar
    42    37    38   ar
    43     7    40    1
    44     8    41    1
    45    15    42    1
    46    15    43    1
    47    15    44    1
    48    16    45    1
    49    16    46    1
    50    16    47    1
    51    17    48    1
    52    17    49    1
    53    17    50    1
    54    18    51    1
    55    19    52    1
    56    21    53    1
    57    22    54    1
    58    29    55    1
    59    29    56    1
    60    31    57    1
    61    32    58    1
    62    33    59    1
    63    33    60    1
    64    34    61    1
    65    35    62    1
    66    36    63    1
    67    37    64    1
    68    38    65    1
    69    39    66    1
    70    39    67    1
    71    39    68    1
@<TRIPOS>MOLECULE
104865
 68 71 0 0 0
SMALL
GASTEIGER

@<TRIPOS>ATOM
      1 S           0.1562    2.0186    2.6045 S.O2    1  LIG1        0.0736
      2 O           0.1708    2.5042    1.2420 O.2     1  LIG1       -0.1499
      3 O          -1.0283    2.1574    3.4294 O.2     1  LIG1       -0.1499
      4 O          -1.2956   -0.9352    1.1264 O.3     1  LIG1       -0.4435
      5 O          -0.4303   -1.7743   -1.4974 O.3     1  LIG1       -0.4715
      6 O          -3.8548   -0.6251    0.4889 O.3     1  LIG1       -0.4914
      7 O           0.3833   -3.6447   -4.5336 O.3     1  LIG1       -0.3917
      8 N           0.5513    0.3783    2.6721 N.pl3   1  LIG1       -0.1963
      9 N           2.2009    0.0135    1.0810 N.ar    1  LIG1       -0.2044
     10 N           1.7295   -1.0988   -0.9774 N.ar    1  LIG1       -0.1866
     11 N           4.4876   -1.3140   -1.3788 N.ar    1  LIG1       -0.2331
     12 N           4.7722    0.5875    0.0407 N.ar    1  LIG1       -0.2331
     13 C           4.6896    4.8524    5.6191 C.3     1  LIG1       -0.0127
     14 C           3.5568    4.1067    4.8895 C.ar    1  LIG1       -0.0419
     15 C           4.8205    6.2789    5.0436 C.3     1  LIG1       -0.0560
     16 C           6.0239    4.1006    5.4239 C.3     1  LIG1       -0.0560
     17 C           4.4668    4.9927    7.1429 C.3     1  LIG1       -0.0560
     18 C           3.6464    3.8630    3.5021 C.ar    1  LIG1       -0.0562
     19 C           2.4009    3.6571    5.5515 C.ar    1  LIG1       -0.0562
     20 C           1.4996    2.7669    3.4911 C.ar    1  LIG1        0.1086
     21 C           2.6300    3.2012    2.8044 C.ar    1  LIG1       -0.0348
     22 C           1.3775    2.9991    4.8616 C.ar    1  LIG1       -0.0348
     23 C           0.9192   -0.1815    1.4176 C.ar    1  LIG1        0.1883
     24 C          -0.0218   -0.8283    0.6391 C.ar    1  LIG1        0.2307
     25 C           0.4532   -1.2534   -0.5819 C.ar    1  LIG1        0.2642
     26 C           2.5745   -0.4793   -0.1197 C.ar    1  LIG1        0.2027
     27 C          -2.0246   -2.0745    0.8616 C.ar    1  LIG1        0.1702
     28 C           4.0100   -0.3887   -0.5094 C.ar    1  LIG1        0.1978
     29 C           0.0965   -2.8568   -2.2670 C.3     1  LIG1        0.1143
     30 C          -3.3778   -1.9096    0.5338 C.ar    1  LIG1        0.1621
     31 C          -1.4819   -3.3593    0.9843 C.ar    1  LIG1       -0.0157
     32 C          -4.1510   -3.0306    0.2217 C.ar    1  LIG1       -0.0163
     33 C          -0.0053   -2.5233   -3.7491 C.3     1  LIG1        0.0783
     34 C          -2.2647   -4.4745    0.6846 C.ar    1  LIG1       -0.0581
     35 C          -3.5922   -4.3088    0.2903 C.ar    1  LIG1       -0.0581
     36 C           5.7925   -1.2382   -1.6932 C.ar    1  LIG1        0.0315
     37 C           6.0682    0.6172   -0.3205 C.ar    1  LIG1        0.0315
     38 C           6.6390   -0.2825   -1.1905 C.ar    1  LIG1       -0.0254
     39 C          -5.2045   -0.4720    0.9148 C.3     1  LIG1        0.0790
     40 H           0.3147   -3.3711   -5.4646 H       1  LIG1        0.2095
     41 H          -0.2399   -0.0974    3.1065 H       1  LIG1        0.1754
     42 H           5.0813    6.2732    3.9797 H       1  LIG1        0.0238
     43 H           5.6025    6.8446    5.5638 H       1  LIG1        0.0238
     44 H           3.8814    6.8348    5.1492 H       1  LIG1        0.0238
     45 H           6.3265    4.0579    4.3720 H       1  LIG1        0.0238
     46 H           5.9516    3.0690    5.7886 H       1  LIG1        0.0238
     47 H           6.8376    4.5914    5.9702 H       1  LIG1        0.0238
     48 H           3.5601    5.5659    7.3682 H       1  LIG1        0.0238
     49 H           5.3039    5.5188    7.6178 H       1  LIG1        0.0238
     50 H           4.3827    4.0142    7.6295 H       1  LIG1        0.0238
     51 H           4.5147    4.1959    2.9369 H       1  LIG1        0.0621
     52 H           2.2597    3.8158    6.6173 H       1  LIG1        0.0621
     53 H           2.7287    3.0332    1.7338 H       1  LIG1        0.0637
     54 H           0.4886    2.6822    5.4022 H       1  LIG1        0.0637
     55 H          -0.5211   -3.7386   -2.0571 H       1  LIG1        0.0720
     56 H           1.1205   -3.1532   -2.0051 H       1  LIG1        0.0720
     57 H          -0.4507   -3.5057    1.2920 H       1  LIG1        0.0655
     58 H          -5.1837   -2.9300   -0.0967 H       1  LIG1        0.0655
     59 H          -1.0337   -2.2510   -4.0078 H       1  LIG1        0.0591
     60 H           0.6379   -1.6717   -3.9956 H       1  LIG1        0.0591
     61 H          -1.8373   -5.4720    0.7473 H       1  LIG1        0.0619
     62 H          -4.1946   -5.1775    0.0364 H       1  LIG1        0.0619
     63 H           6.1463   -1.9980   -2.3848 H       1  LIG1        0.0831
     64 H           6.6557    1.4131    0.1280 H       1  LIG1        0.0831
     65 H           7.6844   -0.2394   -1.4599 H       1  LIG1        0.0648
     66 H          -5.3631    0.5852    1.1512 H       1  LIG1        0.0660
     67 H          -5.4152   -1.0507    1.8212 H       1  LIG1        0.0660
     68 H          -5.8957   -0.7422    0.1101 H       1  LIG1        0.0660
@<TRIPOS>BOND
     1     1     2    2
     2     1     3    2
     3     1     8    1
     4     1    20    1
     5     4    24    1
     6     4    27    1
     7     5    25    1
     8     5    29    1
     9     6    30    1
    10     6    39    1
    11     7    33    1
    12     8    23    1
    13     9    23   ar
    14     9    26   ar
    15    10    25   ar
    16    10    26   ar
    17    11    28   ar
    18    11    36   ar
    19    12    28   ar
    20    12    37   ar
    21    13    14    1
    22    13    15    1
    23    13    16    1
    24    13    17    1
    25    14    18   ar
    26    14    19   ar
    27    18    21   ar
    28    19    22   ar
    29    20    21   ar
    30    20    22   ar
    31    23    24   ar
    32    24    25   ar
    33    26    28    1
    34    27    30   ar
    35    27    31   ar
    36    29    33    1
    37    30    32   ar
    38    31    34   ar
    39    32    35   ar
    40    34    35   ar
    41    36    38   ar
    42    37    38   ar
    43     7    40    1
    44     8    41    1
    45    15    42    1
    46    15    43    1
    47    15    44    1
    48    16    45    1
    49    16    46    1
    50    16    47    1
    51    17    48    1
    52    17    49    1
    53    17    50    1
    54    18    51    1
    55    19    52    1
    56    21    53    1
    57    22    54    1
    58    29    55    1
    59    29    56    1
    60    31    57    1
    61    32    58    1
    62    33    59    1
    63    33    60    1
    64    34    61    1
    65    35    62    1
    66    36    63    1
    67    37    64    1
    68    38    65    1
    69    39    66    1
    70    39    67    1
    71    39    68    1
@<TRIPOS>MOLECULE
104865
 68 71 0 0 0
SMALL
GASTEIGER

@<TRIPOS>ATOM
      1 S           0.1709    2.0173    2.6075 S.O2    1  LIG1        0.0736
      2 O           0.1878    2.5009    1.2434 O.2     1  LIG1       -0.1499
      3 O          -1.0140    2.1547    3.4321 O.2     1  LIG1       -0.1499
      4 O          -1.2794   -0.9278    1.1379 O.3     1  LIG1       -0.4435
      5 O          -0.4171   -1.7799   -1.4888 O.3     1  LIG1       -0.4715
      6 O          -3.7401   -0.5367    0.2707 O.3     1  LIG1       -0.4914
      7 O           0.3886   -3.6503   -4.5267 O.3     1  LIG1       -0.3917
      8 N           0.5727    0.3777    2.6769 N.pl3   1  LIG1       -0.1963
      9 N           2.2197    0.0082    1.0840 N.ar    1  LIG1       -0.2044
     10 N           1.7436   -1.1089   -0.9709 N.ar    1  LIG1       -0.1866
     11 N           4.5003   -1.3203   -1.3828 N.ar    1  LIG1       -0.2331
     12 N           4.7877    0.5815    0.0366 N.ar    1  LIG1       -0.2331
     13 C           4.6999    4.8566    5.6227 C.3     1  LIG1       -0.0127
     14 C           3.5683    4.1100    4.8922 C.ar    1  LIG1       -0.0419
     15 C           4.8300    6.2829    5.0471 C.3     1  LIG1       -0.0560
     16 C           6.0347    4.1055    5.4287 C.3     1  LIG1       -0.0560
     17 C           4.4756    4.9966    7.1461 C.3     1  LIG1       -0.0560
     18 C           3.6597    3.8644    3.5051 C.ar    1  LIG1       -0.0562
     19 C           2.4115    3.6613    5.5535 C.ar    1  LIG1       -0.0562
     20 C           1.5136    2.7682    3.4934 C.ar    1  LIG1        0.1086
     21 C           2.6448    3.2015    2.8072 C.ar    1  LIG1       -0.0348
     22 C           1.3892    3.0023    4.8628 C.ar    1  LIG1       -0.0348
     23 C           0.9376   -0.1841    1.4222 C.ar    1  LIG1        0.1883
     24 C          -0.0063   -0.8287    0.6459 C.ar    1  LIG1        0.2307
     25 C           0.4673   -1.2606   -0.5735 C.ar    1  LIG1        0.2642
     26 C           2.5906   -0.4878   -0.1164 C.ar    1  LIG1        0.2027
     27 C          -2.0264   -2.0449    0.8314 C.ar    1  LIG1        0.1702
     28 C           4.0255   -0.3958   -0.5108 C.ar    1  LIG1        0.1978
     29 C           0.1056   -2.8646   -2.2579 C.3     1  LIG1        0.1143
     30 C          -3.3372   -1.8422    0.3703 C.ar    1  LIG1        0.1621
     31 C          -1.5279   -3.3387    1.0276 C.ar    1  LIG1       -0.0157
     32 C          -4.1179   -2.9539    0.0457 C.ar    1  LIG1       -0.0163
     33 C           0.0107   -2.5263   -3.7389 C.3     1  LIG1        0.0783
     34 C          -2.3156   -4.4392    0.6950 C.ar    1  LIG1       -0.0581
     35 C          -3.6039   -4.2459    0.1987 C.ar    1  LIG1       -0.0581
     36 C           5.8038   -1.2426   -1.7029 C.ar    1  LIG1        0.0315
     37 C           6.0824    0.6127   -0.3304 C.ar    1  LIG1        0.0315
     38 C           6.6509   -0.2848   -1.2026 C.ar    1  LIG1       -0.0254
     39 C          -5.0609   -0.2907   -0.1891 C.3     1  LIG1        0.0790
     40 H           0.3303   -3.3717   -5.4565 H       1  LIG1        0.2095
     41 H          -0.2187   -0.0984    3.1133 H       1  LIG1        0.1754
     42 H           5.0917    6.2774    3.9834 H       1  LIG1        0.0238
     43 H           5.6109    6.8495    5.5679 H       1  LIG1        0.0238
     44 H           3.8902    6.8380    5.1517 H       1  LIG1        0.0238
     45 H           6.3386    4.0633    4.3773 H       1  LIG1        0.0238
     46 H           5.9628    3.0739    5.7932 H       1  LIG1        0.0238
     47 H           6.8476    4.5968    5.9762 H       1  LIG1        0.0238
     48 H           3.5682    5.5694    7.3706 H       1  LIG1        0.0238
     49 H           5.3117    5.5228    7.6220 H       1  LIG1        0.0238
     50 H           4.3911    4.0178    7.6326 H       1  LIG1        0.0238
     51 H           4.5289    4.1971    2.9409 H       1  LIG1        0.0621
     52 H           2.2687    3.8212    6.6188 H       1  LIG1        0.0621
     53 H           2.7449    3.0316    1.7368 H       1  LIG1        0.0637
     54 H           0.4995    2.6856    5.4028 H       1  LIG1        0.0637
     55 H          -0.5185   -3.7423   -2.0512 H       1  LIG1        0.0720
     56 H           1.1267   -3.1673   -1.9929 H       1  LIG1        0.0720
     57 H          -0.5288   -3.4990    1.4213 H       1  LIG1        0.0655
     58 H          -5.1299   -2.8506   -0.3311 H       1  LIG1        0.0655
     59 H          -1.0145   -2.2426   -4.0001 H       1  LIG1        0.0591
     60 H           0.6631   -1.6816   -3.9825 H       1  LIG1        0.0591
     61 H          -1.9256   -5.4460    0.8189 H       1  LIG1        0.0619
     62 H          -4.2162   -5.1053   -0.0653 H       1  LIG1        0.0619
     63 H           6.1563   -2.0016   -2.3955 H       1  LIG1        0.0831
     64 H           6.6709    1.4097    0.1159 H       1  LIG1        0.0831
     65 H           7.6955   -0.2415   -1.4762 H       1  LIG1        0.0648
     66 H          -5.2213    0.7919   -0.1804 H       1  LIG1        0.0660
     67 H          -5.8040   -0.7414    0.4768 H       1  LIG1        0.0660
     68 H          -5.1885   -0.6387   -1.2192 H       1  LIG1        0.0660
@<TRIPOS>BOND
     1     1     2    2
     2     1     3    2
     3     1     8    1
     4     1    20    1
     5     4    24    1
     6     4    27    1
     7     5    25    1
     8     5    29    1
     9     6    30    1
    10     6    39    1
    11     7    33    1
    12     8    23    1
    13     9    23   ar
    14     9    26   ar
    15    10    25   ar
    16    10    26   ar
    17    11    28   ar
    18    11    36   ar
    19    12    28   ar
    20    12    37   ar
    21    13    14    1
    22    13    15    1
    23    13    16    1
    24    13    17    1
    25    14    18   ar
    26    14    19   ar
    27    18    21   ar
    28    19    22   ar
    29    20    21   ar
    30    20    22   ar
    31    23    24   ar
    32    24    25   ar
    33    26    28    1
    34    27    30   ar
    35    27    31   ar
    36    29    33    1
    37    30    32   ar
    38    31    34   ar
    39    32    35   ar
    40    34    35   ar
    41    36    38   ar
    42    37    38   ar
    43     7    40    1
    44     8    41    1
    45    15    42    1
    46    15    43    1
    47    15    44    1
    48    16    45    1
    49    16    46    1
    50    16    47    1
    51    17    48    1
    52    17    49    1
    53    17    50    1
    54    18    51    1
    55    19    52    1
    56    21    53    1
    57    22    54    1
    58    29    55    1
    59    29    56    1
    60    31    57    1
    61    32    58    1
    62    33    59    1
    63    33    60    1
    64    34    61    1
    65    35    62    1
    66    36    63    1
    67    37    64    1
    68    38    65    1
    69    39    66    1
    70    39    67    1
    71    39    68    1
@<TRIPOS>MOLECULE
104865
 68 71 0 0 0
SMALL
GASTEIGER

@<TRIPOS>ATOM
      1 S           0.6885   -0.5517    3.9280 S.O2    1  LIG1        0.0736
      2 O           1.0782   -1.8787    3.4935 O.2     1  LIG1       -0.1499
      3 O           1.4035    0.1363    4.9821 O.2     1  LIG1       -0.1499
      4 O          -1.2982   -0.9469    1.1749 O.3     1  LIG1       -0.4435
      5 O          -0.4779   -1.9040   -1.4148 O.3     1  LIG1       -0.4715
      6 O          -3.8434   -0.6649    0.4359 O.3     1  LIG1       -0.4914
      7 O           0.4285   -3.6411   -4.5063 O.3     1  LIG1       -0.3917
      8 N           0.6583    0.5026    2.6110 N.pl3   1  LIG1       -0.1963
      9 N           2.1654    0.1110    0.9577 N.ar    1  LIG1       -0.2044
     10 N           1.6801   -1.1514   -1.0012 N.ar    1  LIG1       -0.1866
     11 N           4.4366   -1.2864   -1.4958 N.ar    1  LIG1       -0.2331
     12 N           4.7320    0.5842   -0.0396 N.ar    1  LIG1       -0.2331
     13 C          -5.1269   -0.7537    5.8724 C.3     1  LIG1       -0.0127
     14 C          -3.6795   -0.7224    5.3482 C.ar    1  LIG1       -0.0419
     15 C          -6.0277    0.1203    4.9747 C.3     1  LIG1       -0.0560
     16 C          -5.1665   -0.2065    7.3158 C.3     1  LIG1       -0.0560
     17 C          -5.7486   -2.1687    5.9038 C.3     1  LIG1       -0.0560
     18 C          -2.9836    0.5021    5.2595 C.ar    1  LIG1       -0.0562
     19 C          -2.9934   -1.8866    4.9603 C.ar    1  LIG1       -0.0562
     20 C          -1.0097   -0.6111    4.4372 C.ar    1  LIG1        0.1086
     21 C          -1.6601    0.5627    4.8112 C.ar    1  LIG1       -0.0348
     22 C          -1.6689   -1.8360    4.5155 C.ar    1  LIG1       -0.0348
     23 C           0.9027   -0.1008    1.3501 C.ar    1  LIG1        0.1883
     24 C          -0.0360   -0.8401    0.6608 C.ar    1  LIG1        0.2307
     25 C           0.4208   -1.3200   -0.5515 C.ar    1  LIG1        0.2642
     26 C           2.5311   -0.4654   -0.2065 C.ar    1  LIG1        0.2027
     27 C          -2.0238   -2.0934    0.9330 C.ar    1  LIG1        0.1702
     28 C           3.9636   -0.3747   -0.6118 C.ar    1  LIG1        0.1978
     29 C           0.0670   -2.9545   -2.2152 C.3     1  LIG1        0.1143
     30 C          -3.3643   -1.9447    0.5520 C.ar    1  LIG1        0.1621
     31 C          -1.4826   -3.3706    1.1247 C.ar    1  LIG1       -0.0157
     32 C          -4.1235   -3.0802    0.2568 C.ar    1  LIG1       -0.0163
     33 C           0.0403   -2.5475   -3.6818 C.3     1  LIG1        0.0783
     34 C          -2.2527   -4.4991    0.8442 C.ar    1  LIG1       -0.0581
     35 C          -3.5653   -4.3533    0.3970 C.ar    1  LIG1       -0.0581
     36 C           5.7479   -1.2244   -1.7891 C.ar    1  LIG1        0.0315
     37 C           6.0338    0.6013   -0.3791 C.ar    1  LIG1        0.0315
     38 C           6.6027   -0.2917   -1.2542 C.ar    1  LIG1       -0.0254
     39 C          -5.2062   -0.5065    0.8158 C.3     1  LIG1        0.0790
     40 H           0.4045   -3.3212   -5.4243 H       1  LIG1        0.2095
     41 H           1.3379    1.2435    2.7832 H       1  LIG1        0.1754
     42 H          -5.7220    1.1721    4.9777 H       1  LIG1        0.0238
     43 H          -7.0707    0.0884    5.3110 H       1  LIG1        0.0238
     44 H          -6.0031   -0.2266    3.9358 H       1  LIG1        0.0238
     45 H          -4.8460    0.8396    7.3711 H       1  LIG1        0.0238
     46 H          -4.5112   -0.7869    7.9762 H       1  LIG1        0.0238
     47 H          -6.1812   -0.2530    7.7284 H       1  LIG1        0.0238
     48 H          -5.7828   -2.6166    4.9037 H       1  LIG1        0.0238
     49 H          -6.7784   -2.1401    6.2796 H       1  LIG1        0.0238
     50 H          -5.1860   -2.8422    6.5610 H       1  LIG1        0.0238
     51 H          -3.4656    1.4327    5.5530 H       1  LIG1        0.0621
     52 H          -3.4645   -2.8650    5.0016 H       1  LIG1        0.0621
     53 H          -1.1462    1.5197    4.7714 H       1  LIG1        0.0637
     54 H          -1.1647   -2.7594    4.2399 H       1  LIG1        0.0637
     55 H          -0.5766   -3.8320   -2.0778 H       1  LIG1        0.0720
     56 H           1.0688   -3.2856   -1.9121 H       1  LIG1        0.0720
     57 H          -0.4615   -3.4957    1.4758 H       1  LIG1        0.0655
     58 H          -5.1436   -2.9953   -0.1038 H       1  LIG1        0.0655
     59 H          -0.9685   -2.2320   -3.9698 H       1  LIG1        0.0591
     60 H           0.7162   -1.7053   -3.8614 H       1  LIG1        0.0591
     61 H          -1.8245   -5.4913    0.9620 H       1  LIG1        0.0619
     62 H          -4.1568   -5.2333    0.1559 H       1  LIG1        0.0619
     63 H           6.1021   -1.9776   -2.4872 H       1  LIG1        0.0831
     64 H           6.6261    1.3788    0.0951 H       1  LIG1        0.0831
     65 H           7.6539   -0.2637   -1.5038 H       1  LIG1        0.0648
     66 H          -5.3690    0.5505    1.0472 H       1  LIG1        0.0660
     67 H          -5.4529   -1.0856    1.7126 H       1  LIG1        0.0660
     68 H          -5.8676   -0.7755   -0.0134 H       1  LIG1        0.0660
@<TRIPOS>BOND
     1     1     2    2
     2     1     3    2
     3     1     8    1
     4     1    20    1
     5     4    24    1
     6     4    27    1
     7     5    25    1
     8     5    29    1
     9     6    30    1
    10     6    39    1
    11     7    33    1
    12     8    23    1
    13     9    23   ar
    14     9    26   ar
    15    10    25   ar
    16    10    26   ar
    17    11    28   ar
    18    11    36   ar
    19    12    28   ar
    20    12    37   ar
    21    13    14    1
    22    13    15    1
    23    13    16    1
    24    13    17    1
    25    14    18   ar
    26    14    19   ar
    27    18    21   ar
    28    19    22   ar
    29    20    21   ar
    30    20    22   ar
    31    23    24   ar
    32    24    25   ar
    33    26    28    1
    34    27    30   ar
    35    27    31   ar
    36    29    33    1
    37    30    32   ar
    38    31    34   ar
    39    32    35   ar
    40    34    35   ar
    41    36    38   ar
    42    37    38   ar
    43     7    40    1
    44     8    41    1
    45    15    42    1
    46    15    43    1
    47    15    44    1
    48    16    45    1
    49    16    46    1
    50    16    47    1
    51    17    48    1
    52    17    49    1
    53    17    50    1
    54    18    51    1
    55    19    52    1
    56    21    53    1
    57    22    54    1
    58    29    55    1
    59    29    56    1
    60    31    57    1
    61    32    58    1
    62    33    59    1
    63    33    60    1
    64    34    61    1
    65    35    62    1
    66    36    63    1
    67    37    64    1
    68    38    65    1
    69    39    66    1
    70    39    67    1
    71    39    68    1
@<TRIPOS>MOLECULE
104865
 68 71 0 0 0
SMALL
GASTEIGER

@<TRIPOS>ATOM
      1 S           0.7617   -0.6275    3.9947 S.O2    1  LIG1        0.0736
      2 O          -0.2177   -0.2257    4.9845 O.2     1  LIG1       -0.1499
      3 O           0.8380   -2.0055    3.5554 O.2     1  LIG1       -0.1499
      4 O          -1.3603   -0.8354    1.0661 O.3     1  LIG1       -0.4435
      5 O          -0.4599   -1.7501   -1.5016 O.3     1  LIG1       -0.4715
      6 O          -3.9194   -0.5940    0.3851 O.3     1  LIG1       -0.4914
      7 O          -1.3788   -2.5475   -4.2125 O.3     1  LIG1       -0.3917
      8 N           0.5102    0.3869    2.6779 N.pl3   1  LIG1       -0.1963
      9 N           2.1804   -0.0701    1.1369 N.ar    1  LIG1       -0.2044
     10 N           1.7131   -1.1299   -0.9472 N.ar    1  LIG1       -0.1866
     11 N           4.3411   -0.6316   -1.7373 N.ar    1  LIG1       -0.2331
     12 N           4.9150   -0.2927    0.5565 N.ar    1  LIG1       -0.2331
     13 C           6.2431    0.8894    6.3003 C.3     1  LIG1       -0.0127
     14 C           4.8664    0.5312    5.7092 C.ar    1  LIG1       -0.0419
     15 C           6.9289    1.8938    5.3548 C.3     1  LIG1       -0.0560
     16 C           7.1506   -0.3544    6.4497 C.3     1  LIG1       -0.0560
     17 C           6.1482    1.5290    7.7055 C.3     1  LIG1       -0.0560
     18 C           3.6931    1.2000    6.1069 C.ar    1  LIG1       -0.0562
     19 C           4.7400   -0.4571    4.7128 C.ar    1  LIG1       -0.0562
     20 C           2.3523   -0.1277    4.5982 C.ar    1  LIG1        0.1086
     21 C           2.4449    0.8699    5.5673 C.ar    1  LIG1       -0.0348
     22 C           3.4962   -0.7964    4.1707 C.ar    1  LIG1       -0.0348
     23 C           0.8754   -0.1629    1.4208 C.ar    1  LIG1        0.1883
     24 C          -0.0657   -0.7873    0.6280 C.ar    1  LIG1        0.2307
     25 C           0.4236   -1.2457   -0.5760 C.ar    1  LIG1        0.2642
     26 C           2.5638   -0.5637   -0.0610 C.ar    1  LIG1        0.2027
     27 C          -2.0773   -1.9980    0.8741 C.ar    1  LIG1        0.1702
     28 C           4.0075   -0.4869   -0.4308 C.ar    1  LIG1        0.1978
     29 C           0.0610   -2.8312   -2.2869 C.3     1  LIG1        0.1143
     30 C          -3.4247   -1.8677    0.5110 C.ar    1  LIG1        0.1621
     31 C          -1.5289   -3.2681    1.0912 C.ar    1  LIG1       -0.0157
     32 C          -4.1809   -3.0133    0.2489 C.ar    1  LIG1       -0.0163
     33 C          -0.0249   -2.4670   -3.7652 C.3     1  LIG1        0.0783
     34 C          -2.2959   -4.4073    0.8461 C.ar    1  LIG1       -0.0581
     35 C          -3.6134   -4.2797    0.4091 C.ar    1  LIG1       -0.0581
     36 C           5.6493   -0.5598   -2.0427 C.ar    1  LIG1        0.0315
     37 C           6.2083   -0.2350    0.1901 C.ar    1  LIG1        0.0315
     38 C           6.6368   -0.3623   -1.1090 C.ar    1  LIG1       -0.0254
     39 C          -5.2612   -0.4406    0.8377 C.3     1  LIG1        0.0790
     40 H          -1.4097   -2.1498   -5.0986 H       1  LIG1        0.2095
     41 H          -0.4425    0.7481    2.7203 H       1  LIG1        0.1754
     42 H           7.0682    1.4726    4.3522 H       1  LIG1        0.0238
     43 H           7.9165    2.1824    5.7328 H       1  LIG1        0.0238
     44 H           6.3342    2.8085    5.2458 H       1  LIG1        0.0238
     45 H           7.4336   -0.7831    5.4825 H       1  LIG1        0.0238
     46 H           6.6553   -1.1382    7.0346 H       1  LIG1        0.0238
     47 H           8.0881   -0.1015    6.9595 H       1  LIG1        0.0238
     48 H           5.6618    2.5102    7.6810 H       1  LIG1        0.0238
     49 H           7.1440    1.6890    8.1362 H       1  LIG1        0.0238
     50 H           5.5882    0.8883    8.3970 H       1  LIG1        0.0238
     51 H           3.7201    1.9928    6.8497 H       1  LIG1        0.0621
     52 H           5.6099   -0.9854    4.3318 H       1  LIG1        0.0621
     53 H           1.5565    1.3923    5.9142 H       1  LIG1        0.0637
     54 H           3.4353   -1.5742    3.4128 H       1  LIG1        0.0637
     55 H          -0.5709   -3.7024   -2.0806 H       1  LIG1        0.0720
     56 H           1.0892   -3.1074   -2.0264 H       1  LIG1        0.0720
     57 H          -0.5075   -3.3849    1.4438 H       1  LIG1        0.0655
     58 H          -5.2057   -2.9414   -0.1005 H       1  LIG1        0.0655
     59 H           0.3342   -1.4483   -3.9401 H       1  LIG1        0.0591
     60 H           0.5601   -3.1715   -4.3634 H       1  LIG1        0.0591
     61 H          -1.8624   -5.3939    0.9887 H       1  LIG1        0.0619
     62 H          -4.2027   -5.1681    0.1959 H       1  LIG1        0.0619
     63 H           5.8855   -0.6693   -3.0973 H       1  LIG1        0.0831
     64 H           6.9128   -0.0775    1.0018 H       1  LIG1        0.0831
     65 H           7.6821   -0.3100   -1.3790 H       1  LIG1        0.0648
     66 H          -5.4321    0.6248    1.0205 H       1  LIG1        0.0660
     67 H          -5.4386   -0.9716    1.7803 H       1  LIG1        0.0660
     68 H          -5.9673   -0.7663    0.0679 H       1  LIG1        0.0660
@<TRIPOS>BOND
     1     1     2    2
     2     1     3    2
     3     1     8    1
     4     1    20    1
     5     4    24    1
     6     4    27    1
     7     5    25    1
     8     5    29    1
     9     6    30    1
    10     6    39    1
    11     7    33    1
    12     8    23    1
    13     9    23   ar
    14     9    26   ar
    15    10    25   ar
    16    10    26   ar
    17    11    28   ar
    18    11    36   ar
    19    12    28   ar
    20    12    37   ar
    21    13    14    1
    22    13    15    1
    23    13    16    1
    24    13    17    1
    25    14    18   ar
    26    14    19   ar
    27    18    21   ar
    28    19    22   ar
    29    20    21   ar
    30    20    22   ar
    31    23    24   ar
    32    24    25   ar
    33    26    28    1
    34    27    30   ar
    35    27    31   ar
    36    29    33    1
    37    30    32   ar
    38    31    34   ar
    39    32    35   ar
    40    34    35   ar
    41    36    38   ar
    42    37    38   ar
    43     7    40    1
    44     8    41    1
    45    15    42    1
    46    15    43    1
    47    15    44    1
    48    16    45    1
    49    16    46    1
    50    16    47    1
    51    17    48    1
    52    17    49    1
    53    17    50    1
    54    18    51    1
    55    19    52    1
    56    21    53    1
    57    22    54    1
    58    29    55    1
    59    29    56    1
    60    31    57    1
    61    32    58    1
    62    33    59    1
    63    33    60    1
    64    34    61    1
    65    35    62    1
    66    36    63    1
    67    37    64    1
    68    38    65    1
    69    39    66    1
    70    39    67    1
    71    39    68    1
@<TRIPOS>MOLECULE
104865
 68 71 0 0 0
SMALL
GASTEIGER

@<TRIPOS>ATOM
      1 S           0.1771    2.0242    2.5558 S.O2    1  LIG1        0.0736
      2 O           0.2489    2.4807    1.1868 O.2     1  LIG1       -0.1499
      3 O          -1.0418    2.1688    3.3281 O.2     1  LIG1       -0.1499
      4 O          -1.2997   -0.9398    1.1488 O.3     1  LIG1       -0.4435
      5 O          -0.4484   -1.8153   -1.4595 O.3     1  LIG1       -0.4715
      6 O          -3.8492   -0.6255    0.4805 O.3     1  LIG1       -0.4914
      7 O           0.4131   -3.5783   -4.5478 O.3     1  LIG1       -0.3917
      8 N           0.5702    0.3833    2.6807 N.pl3   1  LIG1       -0.1963
      9 N           2.2088   -0.0463    1.0996 N.ar    1  LIG1       -0.2044
     10 N           1.7251   -1.1605   -0.9534 N.ar    1  LIG1       -0.1866
     11 N           4.4830   -1.2967   -1.4261 N.ar    1  LIG1       -0.2331
     12 N           4.7725    0.5153    0.1048 N.ar    1  LIG1       -0.2331
     13 C           4.6773    4.8518    5.6298 C.3     1  LIG1       -0.0127
     14 C           3.5341    4.1369    4.8862 C.ar    1  LIG1       -0.0419
     15 C           5.3516    5.8803    4.6953 C.3     1  LIG1       -0.0560
     16 C           5.7246    3.8119    6.0806 C.3     1  LIG1       -0.0560
     17 C           4.2194    5.6201    6.8907 C.3     1  LIG1       -0.0560
     18 C           3.7941    3.4497    3.6817 C.ar    1  LIG1       -0.0562
     19 C           2.2102    4.1337    5.3590 C.ar    1  LIG1       -0.0562
     20 C           1.4784    2.8104    3.4711 C.ar    1  LIG1        0.1086
     21 C           2.7785    2.7993    2.9731 C.ar    1  LIG1       -0.0348
     22 C           1.1891    3.4791    4.6605 C.ar    1  LIG1       -0.0348
     23 C           0.9250   -0.2161    1.4392 C.ar    1  LIG1        0.1883
     24 C          -0.0230   -0.8554    0.6654 C.ar    1  LIG1        0.2307
     25 C           0.4471   -1.2972   -0.5528 C.ar    1  LIG1        0.2642
     26 C           2.5762   -0.5423   -0.1013 C.ar    1  LIG1        0.2027
     27 C          -2.0348   -2.0798    0.9034 C.ar    1  LIG1        0.1702
     28 C           4.0092   -0.4286   -0.4990 C.ar    1  LIG1        0.1978
     29 C           0.0716   -2.8779   -2.2599 C.3     1  LIG1        0.1143
     30 C          -3.3848   -1.9127    0.5624 C.ar    1  LIG1        0.1621
     31 C          -1.5010   -3.3652    1.0568 C.ar    1  LIG1       -0.0157
     32 C          -4.1647   -3.0355    0.2747 C.ar    1  LIG1       -0.0163
     33 C           0.0440   -2.4749   -3.7273 C.3     1  LIG1        0.0783
     34 C          -2.2907   -4.4814    0.7807 C.ar    1  LIG1       -0.0581
     35 C          -3.6151   -4.3160    0.3779 C.ar    1  LIG1       -0.0581
     36 C           5.7851   -1.1940   -1.7461 C.ar    1  LIG1        0.0315
     37 C           6.0651    0.5755   -0.2644 C.ar    1  LIG1        0.0315
     38 C           6.6316   -0.2653   -1.1918 C.ar    1  LIG1       -0.0254
     39 C          -5.2059   -0.4484    0.8736 C.3     1  LIG1        0.0790
     40 H           0.3857   -3.2632   -5.4676 H       1  LIG1        0.2095
     41 H          -0.2274   -0.0715    3.1265 H       1  LIG1        0.1754
     42 H           5.8178    5.4079    3.8240 H       1  LIG1        0.0238
     43 H           6.1416    6.4317    5.2188 H       1  LIG1        0.0238
     44 H           4.6242    6.6121    4.3241 H       1  LIG1        0.0238
     45 H           6.1775    3.2873    5.2321 H       1  LIG1        0.0238
     46 H           5.2732    3.0545    6.7325 H       1  LIG1        0.0238
     47 H           6.5400    4.2879    6.6377 H       1  LIG1        0.0238
     48 H           3.4832    6.3945    6.6452 H       1  LIG1        0.0238
     49 H           5.0651    6.1212    7.3771 H       1  LIG1        0.0238
     50 H           3.7746    4.9490    7.6346 H       1  LIG1        0.0238
     51 H           4.8009    3.4137    3.2702 H       1  LIG1        0.0621
     52 H           1.9351    4.6438    6.2785 H       1  LIG1        0.0621
     53 H           3.0150    2.2942    2.0388 H       1  LIG1        0.0637
     54 H           0.1746    3.5087    5.0515 H       1  LIG1        0.0637
     55 H          -0.5868   -3.7433   -2.1158 H       1  LIG1        0.0720
     56 H           1.0701   -3.2262   -1.9658 H       1  LIG1        0.0720
     57 H          -0.4725   -3.5112    1.3728 H       1  LIG1        0.0655
     58 H          -5.1949   -2.9363   -0.0515 H       1  LIG1        0.0655
     59 H          -0.9612   -2.1456   -4.0126 H       1  LIG1        0.0591
     60 H           0.7323   -1.6441   -3.9122 H       1  LIG1        0.0591
     61 H          -1.8706   -5.4803    0.8693 H       1  LIG1        0.0619
     62 H          -4.2234   -5.1863    0.1435 H       1  LIG1        0.0619
     63 H           6.1380   -1.9070   -2.4857 H       1  LIG1        0.0831
     64 H           6.6519    1.3462    0.2271 H       1  LIG1        0.0831
     65 H           7.6747   -0.2006   -1.4673 H       1  LIG1        0.0648
     66 H          -5.3594    0.6162    1.0745 H       1  LIG1        0.0660
     67 H          -5.4384   -0.9975    1.7932 H       1  LIG1        0.0660
     68 H          -5.8831   -0.7378    0.0643 H       1  LIG1        0.0660
@<TRIPOS>BOND
     1     1     2    2
     2     1     3    2
     3     1     8    1
     4     1    20    1
     5     4    24    1
     6     4    27    1
     7     5    25    1
     8     5    29    1
     9     6    30    1
    10     6    39    1
    11     7    33    1
    12     8    23    1
    13     9    23   ar
    14     9    26   ar
    15    10    25   ar
    16    10    26   ar
    17    11    28   ar
    18    11    36   ar
    19    12    28   ar
    20    12    37   ar
    21    13    14    1
    22    13    15    1
    23    13    16    1
    24    13    17    1
    25    14    18   ar
    26    14    19   ar
    27    18    21   ar
    28    19    22   ar
    29    20    21   ar
    30    20    22   ar
    31    23    24   ar
    32    24    25   ar
    33    26    28    1
    34    27    30   ar
    35    27    31   ar
    36    29    33    1
    37    30    32   ar
    38    31    34   ar
    39    32    35   ar
    40    34    35   ar
    41    36    38   ar
    42    37    38   ar
    43     7    40    1
    44     8    41    1
    45    15    42    1
    46    15    43    1
    47    15    44    1
    48    16    45    1
    49    16    46    1
    50    16    47    1
    51    17    48    1
    52    17    49    1
    53    17    50    1
    54    18    51    1
    55    19    52    1
    56    21    53    1
    57    22    54    1
    58    29    55    1
    59    29    56    1
    60    31    57    1
    61    32    58    1
    62    33    59    1
    63    33    60    1
    64    34    61    1
    65    35    62    1
    66    36    63    1
    67    37    64    1
    68    38    65    1
    69    39    66    1
    70    39    67    1
    71    39    68    1
@<TRIPOS>MOLECULE
104865
 68 71 0 0 0
SMALL
GASTEIGER

@<TRIPOS>ATOM
      1 S           0.1957    2.0220    2.5522 S.O2    1  LIG1        0.0736
      2 O           0.2678    2.4804    1.1831 O.2     1  LIG1       -0.1499
      3 O          -1.0226    2.1597    3.3275 O.2     1  LIG1       -0.1499
      4 O          -1.2808   -0.9317    1.1502 O.3     1  LIG1       -0.4435
      5 O          -0.4296   -1.8112   -1.4666 O.3     1  LIG1       -0.4715
      6 O          -3.7336   -0.5342    0.2556 O.3     1  LIG1       -0.4914
      7 O           0.3854   -3.6322   -4.5325 O.3     1  LIG1       -0.3917
      8 N           0.5960    0.3821    2.6775 N.pl3   1  LIG1       -0.1963
      9 N           2.2320   -0.0515    1.0944 N.ar    1  LIG1       -0.2044
     10 N           1.7427   -1.1665   -0.9563 N.ar    1  LIG1       -0.1866
     11 N           4.5009   -1.3417   -1.4105 N.ar    1  LIG1       -0.2331
     12 N           4.7935    0.5111    0.0706 N.ar    1  LIG1       -0.2331
     13 C           4.6831    4.8607    5.6353 C.3     1  LIG1       -0.0127
     14 C           3.5427    4.1445    4.8889 C.ar    1  LIG1       -0.0419
     15 C           5.3599    5.8878    4.7012 C.3     1  LIG1       -0.0560
     16 C           5.7291    3.8219    6.0917 C.3     1  LIG1       -0.0560
     17 C           4.2204    5.6308    6.8935 C.3     1  LIG1       -0.0560
     18 C           3.8083    3.4507    3.6892 C.ar    1  LIG1       -0.0562
     19 C           2.2161    4.1460    5.3542 C.ar    1  LIG1       -0.0562
     20 C           1.4935    2.8128    3.4698 C.ar    1  LIG1        0.1086
     21 C           2.7958    2.7975    2.9791 C.ar    1  LIG1       -0.0348
     22 C           1.1981    3.4888    4.6543 C.ar    1  LIG1       -0.0348
     23 C           0.9470   -0.2167    1.4347 C.ar    1  LIG1        0.1883
     24 C          -0.0045   -0.8523    0.6613 C.ar    1  LIG1        0.2307
     25 C           0.4644   -1.2988   -0.5559 C.ar    1  LIG1        0.2642
     26 C           2.5963   -0.5514   -0.1057 C.ar    1  LIG1        0.2027
     27 C          -2.0354   -2.0468    0.8524 C.ar    1  LIG1        0.1702
     28 C           4.0293   -0.4486   -0.5060 C.ar    1  LIG1        0.1978
     29 C           0.0829   -2.8885   -2.2523 C.3     1  LIG1        0.1143
     30 C          -3.3402   -1.8406    0.3768 C.ar    1  LIG1        0.1621
     31 C          -1.5474   -3.3418    1.0675 C.ar    1  LIG1       -0.0157
     32 C          -4.1250   -2.9513    0.0569 C.ar    1  LIG1       -0.0163
     33 C           0.0217   -2.5163   -3.7268 C.3     1  LIG1        0.0783
     34 C          -2.3388   -4.4406    0.7403 C.ar    1  LIG1       -0.0581
     35 C          -3.6212   -4.2450    0.2293 C.ar    1  LIG1       -0.0581
     36 C           5.8019   -1.2480   -1.7366 C.ar    1  LIG1        0.0315
     37 C           6.0849    0.5616   -0.3047 C.ar    1  LIG1        0.0315
     38 C           6.6494   -0.3042   -1.2104 C.ar    1  LIG1       -0.0254
     39 C          -5.0573   -0.2868   -0.1957 C.3     1  LIG1        0.0790
     40 H           0.3479   -3.3329   -5.4572 H       1  LIG1        0.2095
     41 H          -0.1999   -0.0745    3.1252 H       1  LIG1        0.1754
     42 H           5.8277    5.4140    3.8315 H       1  LIG1        0.0238
     43 H           6.1489    6.4394    5.2260 H       1  LIG1        0.0238
     44 H           4.6337    6.6194    4.3275 H       1  LIG1        0.0238
     45 H           6.1858    3.2966    5.2457 H       1  LIG1        0.0238
     46 H           5.2754    3.0651    6.7426 H       1  LIG1        0.0238
     47 H           6.5419    4.2991    6.6515 H       1  LIG1        0.0238
     48 H           3.4860    6.4057    6.6442 H       1  LIG1        0.0238
     49 H           5.0645    6.1317    7.3829 H       1  LIG1        0.0238
     50 H           3.7718    4.9609    7.6362 H       1  LIG1        0.0238
     51 H           4.8175    3.4115    3.2833 H       1  LIG1        0.0621
     52 H           1.9367    4.6615    6.2693 H       1  LIG1        0.0621
     53 H           3.0365    2.2864    2.0493 H       1  LIG1        0.0637
     54 H           0.1813    3.5218    5.0391 H       1  LIG1        0.0637
     55 H          -0.5647   -3.7560   -2.0759 H       1  LIG1        0.0720
     56 H           1.0911   -3.2212   -1.9742 H       1  LIG1        0.0720
     57 H          -0.5526   -3.5040    1.4721 H       1  LIG1        0.0655
     58 H          -5.1320   -2.8459   -0.3326 H       1  LIG1        0.0655
     59 H          -0.9920   -2.2022   -3.9986 H       1  LIG1        0.0591
     60 H           0.6980   -1.6827   -3.9418 H       1  LIG1        0.0591
     61 H          -1.9568   -5.4487    0.8794 H       1  LIG1        0.0619
     62 H          -4.2362   -5.1031   -0.0312 H       1  LIG1        0.0619
     63 H           6.1531   -1.9812   -2.4571 H       1  LIG1        0.0831
     64 H           6.6729    1.3459    0.1635 H       1  LIG1        0.0831
     65 H           7.6916   -0.2464   -1.4906 H       1  LIG1        0.0648
     66 H          -5.2131    0.7963   -0.1967 H       1  LIG1        0.0660
     67 H          -5.7968   -0.7277    0.4809 H       1  LIG1        0.0660
     68 H          -5.1951   -0.6447   -1.2211 H       1  LIG1        0.0660
@<TRIPOS>BOND
     1     1     2    2
     2     1     3    2
     3     1     8    1
     4     1    20    1
     5     4    24    1
     6     4    27    1
     7     5    25    1
     8     5    29    1
     9     6    30    1
    10     6    39    1
    11     7    33    1
    12     8    23    1
    13     9    23   ar
    14     9    26   ar
    15    10    25   ar
    16    10    26   ar
    17    11    28   ar
    18    11    36   ar
    19    12    28   ar
    20    12    37   ar
    21    13    14    1
    22    13    15    1
    23    13    16    1
    24    13    17    1
    25    14    18   ar
    26    14    19   ar
    27    18    21   ar
    28    19    22   ar
    29    20    21   ar
    30    20    22   ar
    31    23    24   ar
    32    24    25   ar
    33    26    28    1
    34    27    30   ar
    35    27    31   ar
    36    29    33    1
    37    30    32   ar
    38    31    34   ar
    39    32    35   ar
    40    34    35   ar
    41    36    38   ar
    42    37    38   ar
    43     7    40    1
    44     8    41    1
    45    15    42    1
    46    15    43    1
    47    15    44    1
    48    16    45    1
    49    16    46    1
    50    16    47    1
    51    17    48    1
    52    17    49    1
    53    17    50    1
    54    18    51    1
    55    19    52    1
    56    21    53    1
    57    22    54    1
    58    29    55    1
    59    29    56    1
    60    31    57    1
    61    32    58    1
    62    33    59    1
    63    33    60    1
    64    34    61    1
    65    35    62    1
    66    36    63    1
    67    37    64    1
    68    38    65    1
    69    39    66    1
    70    39    67    1
    71    39    68    1
@<TRIPOS>MOLECULE
104865
 68 71 0 0 0
SMALL
GASTEIGER

@<TRIPOS>ATOM
      1 S           0.7238   -0.4504    3.9766 S.O2    1  LIG1        0.0736
      2 O           1.1344   -1.7879    3.6083 O.2     1  LIG1       -0.1499
      3 O           1.4695    0.3368    4.9397 O.2     1  LIG1       -0.1499
      4 O          -1.3536   -0.9033    1.0479 O.3     1  LIG1       -0.4435
      5 O          -0.4182   -1.7822   -1.5278 O.3     1  LIG1       -0.4715
      6 O          -3.9636   -0.6353    0.5020 O.3     1  LIG1       -0.4914
      7 O          -0.4603   -4.6579   -3.7806 O.3     1  LIG1       -0.3917
      8 N           0.5560    0.5200    2.6026 N.pl3   1  LIG1       -0.1963
      9 N           2.1681    0.0400    1.0554 N.ar    1  LIG1       -0.2044
     10 N           1.7378   -1.1825   -0.9400 N.ar    1  LIG1       -0.1866
     11 N           4.4901   -1.5095   -1.2412 N.ar    1  LIG1       -0.2331
     12 N           4.7592    0.5449   -0.0484 N.ar    1  LIG1       -0.2331
     13 C          -5.0886   -0.7996    5.9234 C.3     1  LIG1       -0.0127
     14 C          -3.6182   -0.6990    5.4796 C.ar    1  LIG1       -0.0419
     15 C          -5.3259   -2.1361    6.6599 C.3     1  LIG1       -0.0560
     16 C          -6.0063   -0.7430    4.6842 C.3     1  LIG1       -0.0560
     17 C          -5.5338    0.3345    6.8721 C.3     1  LIG1       -0.0560
     18 C          -3.0706   -1.6877    4.6382 C.ar    1  LIG1       -0.0562
     19 C          -2.7723    0.3531    5.8768 C.ar    1  LIG1       -0.0562
     20 C          -0.9506   -0.5414    4.5666 C.ar    1  LIG1        0.1086
     21 C          -1.7449   -1.6246    4.2066 C.ar    1  LIG1       -0.0348
     22 C          -1.4480    0.4360    5.4274 C.ar    1  LIG1       -0.0348
     23 C           0.8712   -0.1149    1.3706 C.ar    1  LIG1        0.1883
     24 C          -0.0571   -0.8080    0.6173 C.ar    1  LIG1        0.2307
     25 C           0.4468   -1.2765   -0.5817 C.ar    1  LIG1        0.2642
     26 C           2.5721   -0.5505   -0.0904 C.ar    1  LIG1        0.2027
     27 C          -2.0751   -2.0466    0.7534 C.ar    1  LIG1        0.1702
     28 C           4.0115   -0.5050   -0.4646 C.ar    1  LIG1        0.1978
     29 C           0.1527   -2.8710   -2.2604 C.3     1  LIG1        0.1143
     30 C          -3.4378   -1.9012    0.4544 C.ar    1  LIG1        0.1621
     31 C          -1.5053   -3.3276    0.7989 C.ar    1  LIG1       -0.0157
     32 C          -4.1798   -3.0253    0.0738 C.ar    1  LIG1       -0.0163
     33 C          -0.9528   -3.5177   -3.0883 C.3     1  LIG1        0.0783
     34 C          -2.2525   -4.4421    0.4208 C.ar    1  LIG1       -0.0581
     35 C          -3.5837   -4.2880    0.0420 C.ar    1  LIG1       -0.0581
     36 C           5.7780   -1.4346   -1.6122 C.ar    1  LIG1        0.0315
     37 C           6.0395    0.5693   -0.4604 C.ar    1  LIG1        0.0315
     38 C           6.6091   -0.4000   -1.2527 C.ar    1  LIG1       -0.0254
     39 C          -5.3244   -0.5713    0.9201 C.3     1  LIG1        0.0790
     40 H          -1.2040   -5.0163   -4.2951 H       1  LIG1        0.2095
     41 H           1.1572    1.3337    2.7364 H       1  LIG1        0.1754
     42 H          -5.1206   -3.0037    6.0233 H       1  LIG1        0.0238
     43 H          -6.3672   -2.2243    6.9905 H       1  LIG1        0.0238
     44 H          -4.6844   -2.2183    7.5447 H       1  LIG1        0.0238
     45 H          -5.8460   -1.5988    4.0205 H       1  LIG1        0.0238
     46 H          -5.8311    0.1696    4.1022 H       1  LIG1        0.0238
     47 H          -7.0641   -0.7575    4.9712 H       1  LIG1        0.0238
     48 H          -4.9444    0.3412    7.7961 H       1  LIG1        0.0238
     49 H          -6.5856    0.2180    7.1602 H       1  LIG1        0.0238
     50 H          -5.4380    1.3181    6.3976 H       1  LIG1        0.0238
     51 H          -3.6734   -2.5280    4.2999 H       1  LIG1        0.0621
     52 H          -3.1214    1.1384    6.5421 H       1  LIG1        0.0621
     53 H          -1.3499   -2.4167    3.5783 H       1  LIG1        0.0637
     54 H          -0.8211    1.2627    5.7534 H       1  LIG1        0.0637
     55 H           0.5794   -3.6194   -1.5789 H       1  LIG1        0.0720
     56 H           0.9474   -2.5217   -2.9305 H       1  LIG1        0.0720
     57 H          -0.4674   -3.4681    1.0919 H       1  LIG1        0.0655
     58 H          -5.2187   -2.9382   -0.2280 H       1  LIG1        0.0655
     59 H          -1.7839   -3.8285   -2.4487 H       1  LIG1        0.0591
     60 H          -1.3511   -2.8017   -3.8147 H       1  LIG1        0.0591
     61 H          -1.7873   -5.4241    0.3977 H       1  LIG1        0.0619
     62 H          -4.1589   -5.1520   -0.2820 H       1  LIG1        0.0619
     63 H           6.1314   -2.2535   -2.2307 H       1  LIG1        0.0831
     64 H           6.6165    1.4277   -0.1276 H       1  LIG1        0.0831
     65 H           7.6383   -0.3540   -1.5731 H       1  LIG1        0.0648
     66 H          -5.5426    0.4603    1.2098 H       1  LIG1        0.0660
     67 H          -5.5076   -1.2095    1.7895 H       1  LIG1        0.0660
     68 H          -5.9971   -0.8383    0.0995 H       1  LIG1        0.0660
@<TRIPOS>BOND
     1     1     2    2
     2     1     3    2
     3     1     8    1
     4     1    20    1
     5     4    24    1
     6     4    27    1
     7     5    25    1
     8     5    29    1
     9     6    30    1
    10     6    39    1
    11     7    33    1
    12     8    23    1
    13     9    23   ar
    14     9    26   ar
    15    10    25   ar
    16    10    26   ar
    17    11    28   ar
    18    11    36   ar
    19    12    28   ar
    20    12    37   ar
    21    13    14    1
    22    13    15    1
    23    13    16    1
    24    13    17    1
    25    14    18   ar
    26    14    19   ar
    27    18    21   ar
    28    19    22   ar
    29    20    21   ar
    30    20    22   ar
    31    23    24   ar
    32    24    25   ar
    33    26    28    1
    34    27    30   ar
    35    27    31   ar
    36    29    33    1
    37    30    32   ar
    38    31    34   ar
    39    32    35   ar
    40    34    35   ar
    41    36    38   ar
    42    37    38   ar
    43     7    40    1
    44     8    41    1
    45    15    42    1
    46    15    43    1
    47    15    44    1
    48    16    45    1
    49    16    46    1
    50    16    47    1
    51    17    48    1
    52    17    49    1
    53    17    50    1
    54    18    51    1
    55    19    52    1
    56    21    53    1
    57    22    54    1
    58    29    55    1
    59    29    56    1
    60    31    57    1
    61    32    58    1
    62    33    59    1
    63    33    60    1
    64    34    61    1
    65    35    62    1
    66    36    63    1
    67    37    64    1
    68    38    65    1
    69    39    66    1
    70    39    67    1
    71    39    68    1
@<TRIPOS>MOLECULE
104865
 68 71 0 0 0
SMALL
GASTEIGER

@<TRIPOS>ATOM
      1 S           0.7547   -0.6206    4.0048 S.O2    1  LIG1        0.0736
      2 O          -0.2276   -0.2219    4.9931 O.2     1  LIG1       -0.1499
      3 O           0.8409   -1.9992    3.5693 O.2     1  LIG1       -0.1499
      4 O          -1.3654   -0.8361    1.0681 O.3     1  LIG1       -0.4435
      5 O          -0.4597   -1.7479   -1.4984 O.3     1  LIG1       -0.4715
      6 O          -3.9243   -0.5946    0.3863 O.3     1  LIG1       -0.4914
      7 O          -1.3797   -2.5422   -4.2088 O.3     1  LIG1       -0.3917
      8 N           0.4984    0.3861    2.6832 N.pl3   1  LIG1       -0.1963
      9 N           2.1750   -0.0702    1.1477 N.ar    1  LIG1       -0.2044
     10 N           1.7121   -1.1286   -0.9389 N.ar    1  LIG1       -0.1866
     11 N           4.3398   -0.6252   -1.7244 N.ar    1  LIG1       -0.2331
     12 N           4.9116   -0.2924    0.5707 N.ar    1  LIG1       -0.2331
     13 C           6.2251    0.9448    6.2952 C.3     1  LIG1       -0.0127
     14 C           4.8461    0.5995    5.7046 C.ar    1  LIG1       -0.0419
     15 C           6.2027    2.1301    7.2867 C.3     1  LIG1       -0.0560
     16 C           7.2022    1.3199    5.1600 C.3     1  LIG1       -0.0560
     17 C           6.7772   -0.2789    7.0579 C.3     1  LIG1       -0.0560
     18 C           3.6702    1.2717    6.0827 C.ar    1  LIG1       -0.0562
     19 C           4.7246   -0.4376    4.7561 C.ar    1  LIG1       -0.0562
     20 C           2.3418   -0.1060    4.6043 C.ar    1  LIG1        0.1086
     21 C           2.4270    0.9216    5.5436 C.ar    1  LIG1       -0.0348
     22 C           3.4873   -0.7932    4.2121 C.ar    1  LIG1       -0.0348
     23 C           0.8692   -0.1638    1.4283 C.ar    1  LIG1        0.1883
     24 C          -0.0698   -0.7877    0.6327 C.ar    1  LIG1        0.2307
     25 C           0.4220   -1.2449   -0.5704 C.ar    1  LIG1        0.2642
     26 C           2.5608   -0.5624   -0.0496 C.ar    1  LIG1        0.2027
     27 C          -2.0818   -1.9986    0.8743 C.ar    1  LIG1        0.1702
     28 C           4.0050   -0.4842   -0.4177 C.ar    1  LIG1        0.1978
     29 C           0.0628   -2.8269   -2.2853 C.3     1  LIG1        0.1143
     30 C          -3.4289   -1.8682    0.5105 C.ar    1  LIG1        0.1621
     31 C          -1.5332   -3.2690    1.0902 C.ar    1  LIG1       -0.0157
     32 C          -4.1846   -3.0135    0.2455 C.ar    1  LIG1       -0.0163
     33 C          -0.0255   -2.4607   -3.7630 C.3     1  LIG1        0.0783
     34 C          -2.2997   -4.4079    0.8421 C.ar    1  LIG1       -0.0581
     35 C          -3.6168   -4.2800    0.4038 C.ar    1  LIG1       -0.0581
     36 C           5.6481   -0.5525   -2.0285 C.ar    1  LIG1        0.0315
     37 C           6.2053   -0.2339    0.2056 C.ar    1  LIG1        0.0315
     38 C           6.6349   -0.3576   -1.0934 C.ar    1  LIG1       -0.0254
     39 C          -5.2643   -0.4422    0.8448 C.3     1  LIG1        0.0790
     40 H          -1.4126   -2.1419   -5.0936 H       1  LIG1        0.2095
     41 H          -0.4557    0.7427    2.7234 H       1  LIG1        0.1754
     42 H           5.8395    3.0479    6.8096 H       1  LIG1        0.0238
     43 H           7.2075    2.3419    7.6719 H       1  LIG1        0.0238
     44 H           5.5654    1.9203    8.1537 H       1  LIG1        0.0238
     45 H           6.8204    2.1645    4.5744 H       1  LIG1        0.0238
     46 H           7.3728    0.4891    4.4667 H       1  LIG1        0.0238
     47 H           8.1816    1.6067    5.5606 H       1  LIG1        0.0238
     48 H           6.0938   -0.5859    7.8587 H       1  LIG1        0.0238
     49 H           7.7477   -0.0548    7.5157 H       1  LIG1        0.0238
     50 H           6.9236   -1.1441    6.4018 H       1  LIG1        0.0238
     51 H           3.6866    2.0772    6.8120 H       1  LIG1        0.0621
     52 H           5.6005   -0.9942    4.4288 H       1  LIG1        0.0621
     53 H           1.5340    1.4488    5.8714 H       1  LIG1        0.0637
     54 H           3.4315   -1.6018    3.4870 H       1  LIG1        0.0637
     55 H          -0.5672   -3.6997   -2.0797 H       1  LIG1        0.0720
     56 H           1.0919   -3.1013   -2.0265 H       1  LIG1        0.0720
     57 H          -0.5122   -3.3861    1.4436 H       1  LIG1        0.0655
     58 H          -5.2089   -2.9409   -0.1051 H       1  LIG1        0.0655
     59 H           0.3322   -1.4413   -3.9368 H       1  LIG1        0.0591
     60 H           0.5598   -3.1636   -4.3631 H       1  LIG1        0.0591
     61 H          -1.8661   -5.3947    0.9828 H       1  LIG1        0.0619
     62 H          -4.2055   -5.1680    0.1876 H       1  LIG1        0.0619
     63 H           5.8853   -0.6591   -3.0832 H       1  LIG1        0.0831
     64 H           6.9091   -0.0790    1.0183 H       1  LIG1        0.0831
     65 H           7.6804   -0.3047   -1.3625 H       1  LIG1        0.0648
     66 H          -5.4344    0.6227    1.0305 H       1  LIG1        0.0660
     67 H          -5.4380   -0.9754    1.7867 H       1  LIG1        0.0660
     68 H          -5.9733   -0.7663    0.0770 H       1  LIG1        0.0660
@<TRIPOS>BOND
     1     1     2    2
     2     1     3    2
     3     1     8    1
     4     1    20    1
     5     4    24    1
     6     4    27    1
     7     5    25    1
     8     5    29    1
     9     6    30    1
    10     6    39    1
    11     7    33    1
    12     8    23    1
    13     9    23   ar
    14     9    26   ar
    15    10    25   ar
    16    10    26   ar
    17    11    28   ar
    18    11    36   ar
    19    12    28   ar
    20    12    37   ar
    21    13    14    1
    22    13    15    1
    23    13    16    1
    24    13    17    1
    25    14    18   ar
    26    14    19   ar
    27    18    21   ar
    28    19    22   ar
    29    20    21   ar
    30    20    22   ar
    31    23    24   ar
    32    24    25   ar
    33    26    28    1
    34    27    30   ar
    35    27    31   ar
    36    29    33    1
    37    30    32   ar
    38    31    34   ar
    39    32    35   ar
    40    34    35   ar
    41    36    38   ar
    42    37    38   ar
    43     7    40    1
    44     8    41    1
    45    15    42    1
    46    15    43    1
    47    15    44    1
    48    16    45    1
    49    16    46    1
    50    16    47    1
    51    17    48    1
    52    17    49    1
    53    17    50    1
    54    18    51    1
    55    19    52    1
    56    21    53    1
    57    22    54    1
    58    29    55    1
    59    29    56    1
    60    31    57    1
    61    32    58    1
    62    33    59    1
    63    33    60    1
    64    34    61    1
    65    35    62    1
    66    36    63    1
    67    37    64    1
    68    38    65    1
    69    39    66    1
    70    39    67    1
    71    39    68    1
@<TRIPOS>MOLECULE
104865
 68 71 0 0 0
SMALL
GASTEIGER

@<TRIPOS>ATOM
      1 S           0.6544   -0.6504    3.9789 S.O2    1  LIG1        0.0736
      2 O           0.2717   -1.9784    3.5511 O.2     1  LIG1       -0.1499
      3 O           1.8890   -0.4122    4.6961 O.2     1  LIG1       -0.1499
      4 O          -1.3225   -0.9068    1.1384 O.3     1  LIG1       -0.4435
      5 O          -0.5086   -1.7469   -1.4633 O.3     1  LIG1       -0.4715
      6 O          -3.8890   -0.6140    0.5031 O.3     1  LIG1       -0.4914
      7 O          -0.3539   -0.6581   -4.9593 O.3     1  LIG1       -0.3917
      8 N           0.6451    0.4356    2.6830 N.pl3   1  LIG1       -0.1963
      9 N           2.1836    0.0410    1.0533 N.ar    1  LIG1       -0.2044
     10 N           1.6622   -1.0042   -1.0194 N.ar    1  LIG1       -0.1866
     11 N           4.2859   -0.5315   -1.8660 N.ar    1  LIG1       -0.2331
     12 N           4.8889   -0.1215    0.4076 N.ar    1  LIG1       -0.2331
     13 C          -3.9632    1.5523    7.3841 C.3     1  LIG1       -0.0127
     14 C          -2.8067    0.9890    6.5356 C.ar    1  LIG1       -0.0419
     15 C          -5.3072    0.8336    7.1191 C.3     1  LIG1       -0.0560
     16 C          -4.1344    3.0442    7.0392 C.3     1  LIG1       -0.0560
     17 C          -3.6914    1.4213    8.9010 C.3     1  LIG1       -0.0560
     18 C          -3.0392    0.3651    5.2952 C.ar    1  LIG1       -0.0562
     19 C          -1.4665    1.1185    6.9516 C.ar    1  LIG1       -0.0562
     20 C          -0.6750   -0.0050    4.9667 C.ar    1  LIG1        0.1086
     21 C          -1.9881   -0.1376    4.5218 C.ar    1  LIG1       -0.0348
     22 C          -0.4068    0.6213    6.1818 C.ar    1  LIG1       -0.0348
     23 C           0.9106   -0.1564    1.4165 C.ar    1  LIG1        0.1883
     24 C          -0.0448   -0.8078    0.6614 C.ar    1  LIG1        0.2307
     25 C           0.3953   -1.1725   -0.5965 C.ar    1  LIG1        0.2642
     26 C           2.5349   -0.4326   -0.1606 C.ar    1  LIG1        0.2027
     27 C          -2.0479   -2.0516    0.8787 C.ar    1  LIG1        0.1702
     28 C           3.9693   -0.3464   -0.5621 C.ar    1  LIG1        0.1978
     29 C          -0.1285   -1.8077   -2.8371 C.3     1  LIG1        0.1143
     30 C          -3.4026   -1.8961    0.5505 C.ar    1  LIG1        0.1621
     31 C          -1.4995   -3.3334    1.0053 C.ar    1  LIG1       -0.0157
     32 C          -4.1695   -3.0244    0.2446 C.ar    1  LIG1       -0.0163
     33 C          -0.5731   -0.5405   -3.5587 C.3     1  LIG1        0.0783
     34 C          -2.2762   -4.4549    0.7150 C.ar    1  LIG1       -0.0581
     35 C          -3.6040   -4.2997    0.3211 C.ar    1  LIG1       -0.0581
     36 C           5.5929   -0.4968   -2.1841 C.ar    1  LIG1        0.0315
     37 C           6.1801   -0.1072    0.0307 C.ar    1  LIG1        0.0315
     38 C           6.5937   -0.2915   -1.2658 C.ar    1  LIG1       -0.0254
     39 C          -5.2469   -0.4760    0.9087 C.3     1  LIG1        0.0790
     40 H          -0.6631    0.1716   -5.3616 H       1  LIG1        0.2095
     41 H           1.4126    1.0867    2.8608 H       1  LIG1        0.1754
     42 H          -5.6794    1.0136    6.1046 H       1  LIG1        0.0238
     43 H          -6.0885    1.1900    7.8012 H       1  LIG1        0.0238
     44 H          -5.2133   -0.2494    7.2604 H       1  LIG1        0.0238
     45 H          -4.3623    3.1847    5.9759 H       1  LIG1        0.0238
     46 H          -3.2238    3.6146    7.2568 H       1  LIG1        0.0238
     47 H          -4.9516    3.4926    7.6160 H       1  LIG1        0.0238
     48 H          -3.4628    0.3847    9.1746 H       1  LIG1        0.0238
     49 H          -4.5629    1.7356    9.4878 H       1  LIG1        0.0238
     50 H          -2.8572    2.0497    9.2305 H       1  LIG1        0.0238
     51 H          -4.0445    0.2555    4.8976 H       1  LIG1        0.0621
     52 H          -1.2162    1.6150    7.8862 H       1  LIG1        0.0621
     53 H          -2.2079   -0.6261    3.5764 H       1  LIG1        0.0637
     54 H           0.6123    0.7294    6.5441 H       1  LIG1        0.0637
     55 H          -0.6563   -2.6640   -3.2744 H       1  LIG1        0.0720
     56 H           0.9346   -2.0228   -2.9993 H       1  LIG1        0.0720
     57 H          -0.4697   -3.4705    1.3242 H       1  LIG1        0.0655
     58 H          -5.2030   -2.9346   -0.0733 H       1  LIG1        0.0655
     59 H          -1.6400   -0.3618   -3.3836 H       1  LIG1        0.0591
     60 H          -0.0266    0.3314   -3.1850 H       1  LIG1        0.0591
     61 H          -1.8413   -5.4484    0.7904 H       1  LIG1        0.0619
     62 H          -4.2017   -5.1742    0.0761 H       1  LIG1        0.0619
     63 H           5.8174   -0.6495   -3.2360 H       1  LIG1        0.0831
     64 H           6.8946    0.0577    0.8322 H       1  LIG1        0.0831
     65 H           7.6379   -0.2777   -1.5445 H       1  LIG1        0.0648
     66 H          -5.4210    0.5798    1.1376 H       1  LIG1        0.0660
     67 H          -5.4619   -1.0522    1.8159 H       1  LIG1        0.0660
     68 H          -5.9233   -0.7583    0.0963 H       1  LIG1        0.0660
@<TRIPOS>BOND
     1     1     2    2
     2     1     3    2
     3     1     8    1
     4     1    20    1
     5     4    24    1
     6     4    27    1
     7     5    25    1
     8     5    29    1
     9     6    30    1
    10     6    39    1
    11     7    33    1
    12     8    23    1
    13     9    23   ar
    14     9    26   ar
    15    10    25   ar
    16    10    26   ar
    17    11    28   ar
    18    11    36   ar
    19    12    28   ar
    20    12    37   ar
    21    13    14    1
    22    13    15    1
    23    13    16    1
    24    13    17    1
    25    14    18   ar
    26    14    19   ar
    27    18    21   ar
    28    19    22   ar
    29    20    21   ar
    30    20    22   ar
    31    23    24   ar
    32    24    25   ar
    33    26    28    1
    34    27    30   ar
    35    27    31   ar
    36    29    33    1
    37    30    32   ar
    38    31    34   ar
    39    32    35   ar
    40    34    35   ar
    41    36    38   ar
    42    37    38   ar
    43     7    40    1
    44     8    41    1
    45    15    42    1
    46    15    43    1
    47    15    44    1
    48    16    45    1
    49    16    46    1
    50    16    47    1
    51    17    48    1
    52    17    49    1
    53    17    50    1
    54    18    51    1
    55    19    52    1
    56    21    53    1
    57    22    54    1
    58    29    55    1
    59    29    56    1
    60    31    57    1
    61    32    58    1
    62    33    59    1
    63    33    60    1
    64    34    61    1
    65    35    62    1
    66    36    63    1
    67    37    64    1
    68    38    65    1
    69    39    66    1
    70    39    67    1
    71    39    68    1
@<TRIPOS>MOLECULE
104865
 68 71 0 0 0
SMALL
GASTEIGER

@<TRIPOS>ATOM
      1 S           0.7096   -0.6188    3.9275 S.O2    1  LIG1        0.0736
      2 O           1.0485   -1.9489    3.4682 O.2     1  LIG1       -0.1499
      3 O           1.4846    0.0446    4.9573 O.2     1  LIG1       -0.1499
      4 O          -1.3006   -0.9229    1.0954 O.3     1  LIG1       -0.4435
      5 O          -0.4225   -1.8403   -1.4886 O.3     1  LIG1       -0.4715
      6 O          -3.7722   -0.5396    0.2312 O.3     1  LIG1       -0.4914
      7 O           0.4316   -3.6664   -4.5402 O.3     1  LIG1       -0.3917
      8 N           0.6402    0.4547    2.6247 N.pl3   1  LIG1       -0.1963
      9 N           2.1882    0.0754    0.9995 N.ar    1  LIG1       -0.2044
     10 N           1.7316   -1.1341   -1.0000 N.ar    1  LIG1       -0.1866
     11 N           4.4928   -1.2857   -1.4429 N.ar    1  LIG1       -0.2331
     12 N           4.7669    0.5822    0.0212 N.ar    1  LIG1       -0.2331
     13 C          -5.1020   -0.7647    5.8973 C.3     1  LIG1       -0.0127
     14 C          -3.6341   -0.7062    5.4381 C.ar    1  LIG1       -0.0419
     15 C          -5.3751   -2.0722    6.6754 C.3     1  LIG1       -0.0560
     16 C          -6.0134   -0.7171    4.6528 C.3     1  LIG1       -0.0560
     17 C          -5.5117    0.4010    6.8244 C.3     1  LIG1       -0.0560
     18 C          -3.0789   -1.7905    4.7309 C.ar    1  LIG1       -0.0562
     19 C          -2.8054    0.4072    5.6719 C.ar    1  LIG1       -0.0562
     20 C          -0.9721   -0.6412    4.4973 C.ar    1  LIG1        0.1086
     21 C          -1.7565   -1.7708    4.2862 C.ar    1  LIG1       -0.0348
     22 C          -1.4840    0.4434    5.2076 C.ar    1  LIG1       -0.0348
     23 C           0.9125   -0.1254    1.3563 C.ar    1  LIG1        0.1883
     24 C          -0.0200   -0.8338    0.6250 C.ar    1  LIG1        0.2307
     25 C           0.4606   -1.2962   -0.5846 C.ar    1  LIG1        0.2642
     26 C           2.5720   -0.4765   -0.1713 C.ar    1  LIG1        0.2027
     27 C          -2.0497   -2.0421    0.7942 C.ar    1  LIG1        0.1702
     28 C           4.0092   -0.3810   -0.5571 C.ar    1  LIG1        0.1978
     29 C           0.1145   -2.9146   -2.2627 C.3     1  LIG1        0.1143
     30 C          -3.3669   -1.8436    0.3491 C.ar    1  LIG1        0.1621
     31 C          -1.5503   -3.3364    0.9929 C.ar    1  LIG1       -0.0157
     32 C          -4.1536   -2.9597    0.0509 C.ar    1  LIG1       -0.0163
     33 C           0.0485   -2.5536   -3.7401 C.3     1  LIG1        0.0783
     34 C          -2.3451   -4.4397    0.6911 C.ar    1  LIG1       -0.0581
     35 C          -3.6408   -4.2510    0.2147 C.ar    1  LIG1       -0.0581
     36 C           5.8037   -1.2109   -1.7338 C.ar    1  LIG1        0.0315
     37 C           6.0691    0.6126   -0.3165 C.ar    1  LIG1        0.0315
     38 C           6.6480   -0.2713   -1.1946 C.ar    1  LIG1       -0.0254
     39 C          -5.1128   -0.3069   -0.1760 C.3     1  LIG1        0.0790
     40 H           0.3898   -3.3729   -5.4664 H       1  LIG1        0.2095
     41 H           1.3046    1.2069    2.8082 H       1  LIG1        0.1754
     42 H          -5.2494   -2.9642    6.0524 H       1  LIG1        0.0238
     43 H          -6.4031   -2.0986    7.0558 H       1  LIG1        0.0238
     44 H          -4.6989   -2.1695    7.5329 H       1  LIG1        0.0238
     45 H          -5.8367   -1.5652    3.9814 H       1  LIG1        0.0238
     46 H          -5.8443    0.1988    4.0739 H       1  LIG1        0.0238
     47 H          -7.0719   -0.7420    4.9363 H       1  LIG1        0.0238
     48 H          -4.8906    0.4318    7.7273 H       1  LIG1        0.0238
     49 H          -6.5543    0.2991    7.1491 H       1  LIG1        0.0238
     50 H          -5.4300    1.3704    6.3198 H       1  LIG1        0.0238
     51 H          -3.6740   -2.6732    4.5065 H       1  LIG1        0.0621
     52 H          -3.1664    1.2753    6.2171 H       1  LIG1        0.0621
     53 H          -1.3579   -2.6377    3.7680 H       1  LIG1        0.0637
     54 H          -0.8669    1.3162    5.4080 H       1  LIG1        0.0637
     55 H          -0.5155   -3.7938   -2.0814 H       1  LIG1        0.0720
     56 H           1.1289   -3.2236   -1.9792 H       1  LIG1        0.0720
     57 H          -0.5453   -3.4923    1.3772 H       1  LIG1        0.0655
     58 H          -5.1699   -2.8610   -0.3151 H       1  LIG1        0.0655
     59 H          -0.9704   -2.2584   -4.0140 H       1  LIG1        0.0591
     60 H           0.7098   -1.7091   -3.9592 H       1  LIG1        0.0591
     61 H          -1.9536   -5.4450    0.8251 H       1  LIG1        0.0619
     62 H          -4.2588   -5.1126   -0.0272 H       1  LIG1        0.0619
     63 H           6.1659   -1.9580   -2.4342 H       1  LIG1        0.0831
     64 H           6.6531    1.3945    0.1605 H       1  LIG1        0.0831
     65 H           7.6990   -0.2316   -1.4434 H       1  LIG1        0.0648
     66 H          -5.2779    0.7748   -0.1800 H       1  LIG1        0.0660
     67 H          -5.8249   -0.7485    0.5291 H       1  LIG1        0.0660
     68 H          -5.2831   -0.6731   -1.1937 H       1  LIG1        0.0660
@<TRIPOS>BOND
     1     1     2    2
     2     1     3    2
     3     1     8    1
     4     1    20    1
     5     4    24    1
     6     4    27    1
     7     5    25    1
     8     5    29    1
     9     6    30    1
    10     6    39    1
    11     7    33    1
    12     8    23    1
    13     9    23   ar
    14     9    26   ar
    15    10    25   ar
    16    10    26   ar
    17    11    28   ar
    18    11    36   ar
    19    12    28   ar
    20    12    37   ar
    21    13    14    1
    22    13    15    1
    23    13    16    1
    24    13    17    1
    25    14    18   ar
    26    14    19   ar
    27    18    21   ar
    28    19    22   ar
    29    20    21   ar
    30    20    22   ar
    31    23    24   ar
    32    24    25   ar
    33    26    28    1
    34    27    30   ar
    35    27    31   ar
    36    29    33    1
    37    30    32   ar
    38    31    34   ar
    39    32    35   ar
    40    34    35   ar
    41    36    38   ar
    42    37    38   ar
    43     7    40    1
    44     8    41    1
    45    15    42    1
    46    15    43    1
    47    15    44    1
    48    16    45    1
    49    16    46    1
    50    16    47    1
    51    17    48    1
    52    17    49    1
    53    17    50    1
    54    18    51    1
    55    19    52    1
    56    21    53    1
    57    22    54    1
    58    29    55    1
    59    29    56    1
    60    31    57    1
    61    32    58    1
    62    33    59    1
    63    33    60    1
    64    34    61    1
    65    35    62    1
    66    36    63    1
    67    37    64    1
    68    38    65    1
    69    39    66    1
    70    39    67    1
    71    39    68    1
@<TRIPOS>MOLECULE
104865
 68 71 0 0 0
SMALL
GASTEIGER

@<TRIPOS>ATOM
      1 S           0.6691   -0.7161    3.9330 S.O2    1  LIG1        0.0736
      2 O           0.9660   -2.0399    3.4281 O.2     1  LIG1       -0.1499
      3 O           1.4647   -0.1113    4.9830 O.2     1  LIG1       -0.1499
      4 O          -1.3124   -0.9050    1.0710 O.3     1  LIG1       -0.4435
      5 O          -0.4237   -1.7101   -1.5471 O.3     1  LIG1       -0.4715
      6 O          -3.8711   -0.6101    0.4214 O.3     1  LIG1       -0.4914
      7 O           1.0442   -3.4500   -4.4380 O.3     1  LIG1       -0.3917
      8 N           0.6308    0.4024    2.6684 N.pl3   1  LIG1       -0.1963
      9 N           2.1927    0.0516    1.0496 N.ar    1  LIG1       -0.2044
     10 N           1.7288   -1.0460   -1.0090 N.ar    1  LIG1       -0.1866
     11 N           4.3474   -0.5486   -1.8256 N.ar    1  LIG1       -0.2331
     12 N           4.9213   -0.1282    0.4547 N.ar    1  LIG1       -0.2331
     13 C          -5.1184   -0.7748    5.9770 C.3     1  LIG1       -0.0127
     14 C          -3.6626   -0.7294    5.4798 C.ar    1  LIG1       -0.0419
     15 C          -5.3684   -2.0696    6.7830 C.3     1  LIG1       -0.0560
     16 C          -6.0657   -0.7465    4.7594 C.3     1  LIG1       -0.0560
     17 C          -5.5024    0.4071    6.8945 C.3     1  LIG1       -0.0560
     18 C          -3.1419   -1.8108    4.7419 C.ar    1  LIG1       -0.0562
     19 C          -2.8077    0.3625    5.7196 C.ar    1  LIG1       -0.0562
     20 C          -1.0124   -0.7054    4.5042 C.ar    1  LIG1        0.1086
     21 C          -1.8261   -1.8109    4.2767 C.ar    1  LIG1       -0.0348
     22 C          -1.4920    0.3780    5.2390 C.ar    1  LIG1       -0.0348
     23 C           0.9087   -0.1380    1.3843 C.ar    1  LIG1        0.1883
     24 C          -0.0288   -0.7984    0.6159 C.ar    1  LIG1        0.2307
     25 C           0.4524   -1.2061   -0.6116 C.ar    1  LIG1        0.2642
     26 C           2.5753   -0.4464   -0.1450 C.ar    1  LIG1        0.2027
     27 C          -2.0320   -2.0483    0.7876 C.ar    1  LIG1        0.1702
     28 C           4.0146   -0.3575   -0.5253 C.ar    1  LIG1        0.1978
     29 C           0.1262   -2.7944   -2.3011 C.3     1  LIG1        0.1143
     30 C          -3.3871   -1.8927    0.4603 C.ar    1  LIG1        0.1621
     31 C          -1.4790   -3.3308    0.9044 C.ar    1  LIG1       -0.0157
     32 C          -4.1516   -3.0220    0.1531 C.ar    1  LIG1       -0.0163
     33 C           0.6472   -2.3274   -3.6553 C.3     1  LIG1        0.0783
     34 C          -2.2542   -4.4522    0.6121 C.ar    1  LIG1       -0.0581
     35 C          -3.5836   -4.2969    0.2241 C.ar    1  LIG1       -0.0581
     36 C           5.6577   -0.5126   -2.1280 C.ar    1  LIG1        0.0315
     37 C           6.2168   -0.1146    0.0929 C.ar    1  LIG1        0.0315
     38 C           6.6465   -0.3028   -1.1980 C.ar    1  LIG1       -0.0254
     39 C          -5.2505   -0.4691    0.7405 C.3     1  LIG1        0.0790
     40 H           1.4489   -3.0935   -5.2473 H       1  LIG1        0.2095
     41 H           1.3100    1.1321    2.8859 H       1  LIG1        0.1754
     42 H          -5.2492   -2.9713    6.1727 H       1  LIG1        0.0238
     43 H          -6.3880   -2.0944    7.1851 H       1  LIG1        0.0238
     44 H          -4.6737   -2.1487    7.6276 H       1  LIG1        0.0238
     45 H          -5.9194   -1.6134    4.1054 H       1  LIG1        0.0238
     46 H          -5.9037    0.1530    4.1535 H       1  LIG1        0.0238
     47 H          -7.1157   -0.7525    5.0740 H       1  LIG1        0.0238
     48 H          -4.8654    0.4465    7.7858 H       1  LIG1        0.0238
     49 H          -6.5394    0.3172    7.2400 H       1  LIG1        0.0238
     50 H          -5.4222    1.3681    6.3738 H       1  LIG1        0.0238
     51 H          -3.7577   -2.6789    4.5161 H       1  LIG1        0.0621
     52 H          -3.1412    1.2271    6.2878 H       1  LIG1        0.0621
     53 H          -1.4540   -2.6769    3.7368 H       1  LIG1        0.0637
     54 H          -0.8519    1.2315    5.4500 H       1  LIG1        0.0637
     55 H          -0.6883   -3.5105   -2.4659 H       1  LIG1        0.0720
     56 H           0.8899   -3.3575   -1.7466 H       1  LIG1        0.0720
     57 H          -0.4479   -3.4681    1.2204 H       1  LIG1        0.0655
     58 H          -5.1865   -2.9341   -0.1612 H       1  LIG1        0.0655
     59 H          -0.1319   -1.7792   -4.1952 H       1  LIG1        0.0591
     60 H           1.5050   -1.6583   -3.5423 H       1  LIG1        0.0591
     61 H          -1.8187   -5.4461    0.6805 H       1  LIG1        0.0619
     62 H          -4.1818   -5.1708   -0.0226 H       1  LIG1        0.0619
     63 H           5.8955   -0.6678   -3.1764 H       1  LIG1        0.0831
     64 H           6.9216    0.0531    0.9023 H       1  LIG1        0.0831
     65 H           7.6940   -0.2887   -1.4640 H       1  LIG1        0.0648
     66 H          -5.4313    0.5812    0.9884 H       1  LIG1        0.0660
     67 H          -5.5310   -1.0691    1.6131 H       1  LIG1        0.0660
     68 H          -5.8731   -0.7221   -0.1232 H       1  LIG1        0.0660
@<TRIPOS>BOND
     1     1     2    2
     2     1     3    2
     3     1     8    1
     4     1    20    1
     5     4    24    1
     6     4    27    1
     7     5    25    1
     8     5    29    1
     9     6    30    1
    10     6    39    1
    11     7    33    1
    12     8    23    1
    13     9    23   ar
    14     9    26   ar
    15    10    25   ar
    16    10    26   ar
    17    11    28   ar
    18    11    36   ar
    19    12    28   ar
    20    12    37   ar
    21    13    14    1
    22    13    15    1
    23    13    16    1
    24    13    17    1
    25    14    18   ar
    26    14    19   ar
    27    18    21   ar
    28    19    22   ar
    29    20    21   ar
    30    20    22   ar
    31    23    24   ar
    32    24    25   ar
    33    26    28    1
    34    27    30   ar
    35    27    31   ar
    36    29    33    1
    37    30    32   ar
    38    31    34   ar
    39    32    35   ar
    40    34    35   ar
    41    36    38   ar
    42    37    38   ar
    43     7    40    1
    44     8    41    1
    45    15    42    1
    46    15    43    1
    47    15    44    1
    48    16    45    1
    49    16    46    1
    50    16    47    1
    51    17    48    1
    52    17    49    1
    53    17    50    1
    54    18    51    1
    55    19    52    1
    56    21    53    1
    57    22    54    1
    58    29    55    1
    59    29    56    1
    60    31    57    1
    61    32    58    1
    62    33    59    1
    63    33    60    1
    64    34    61    1
    65    35    62    1
    66    36    63    1
    67    37    64    1
    68    38    65    1
    69    39    66    1
    70    39    67    1
    71    39    68    1
@<TRIPOS>MOLECULE
104865
 68 71 0 0 0
SMALL
GASTEIGER

@<TRIPOS>ATOM
      1 S           0.6757   -0.6301    3.9198 S.O2    1  LIG1        0.0736
      2 O           1.0039   -1.9597    3.4523 O.2     1  LIG1       -0.1499
      3 O           1.4591    0.0242    4.9488 O.2     1  LIG1       -0.1499
      4 O          -1.3187   -0.9220    1.0640 O.3     1  LIG1       -0.4435
      5 O          -0.4129   -1.8071   -1.5242 O.3     1  LIG1       -0.4715
      6 O          -3.8743   -0.6186    0.4033 O.3     1  LIG1       -0.4914
      7 O           1.0487   -3.4815   -4.4555 O.3     1  LIG1       -0.3917
      8 N           0.6057    0.4513    2.6230 N.pl3   1  LIG1       -0.1963
      9 N           2.1741    0.0761    1.0153 N.ar    1  LIG1       -0.2044
     10 N           1.7375   -1.1277   -0.9899 N.ar    1  LIG1       -0.1866
     11 N           4.4890   -1.2831   -1.4237 N.ar    1  LIG1       -0.2331
     12 N           4.7698    0.5713    0.0566 N.ar    1  LIG1       -0.2331
     13 C          -5.1089   -0.7712    5.9744 C.3     1  LIG1       -0.0127
     14 C          -3.6536   -0.7076    5.4769 C.ar    1  LIG1       -0.0419
     15 C          -5.3459   -2.0703    6.7775 C.3     1  LIG1       -0.0560
     16 C          -6.0562   -0.7505    4.7567 C.3     1  LIG1       -0.0560
     17 C          -5.5058    0.4044    6.8946 C.3     1  LIG1       -0.0560
     18 C          -3.1171   -1.7833    4.7423 C.ar    1  LIG1       -0.0562
     19 C          -2.8149    0.3980    5.7119 C.ar    1  LIG1       -0.0562
     20 C          -1.0047   -0.6452    4.4959 C.ar    1  LIG1        0.1086
     21 C          -1.8015   -1.7646    4.2751 C.ar    1  LIG1       -0.0348
     22 C          -1.5003    0.4324    5.2281 C.ar    1  LIG1       -0.0348
     23 C           0.8923   -0.1212    1.3545 C.ar    1  LIG1        0.1883
     24 C          -0.0342   -0.8227    0.6086 C.ar    1  LIG1        0.2307
     25 C           0.4579   -1.2748   -0.5992 C.ar    1  LIG1        0.2642
     26 C           2.5705   -0.4765   -0.1501 C.ar    1  LIG1        0.2027
     27 C          -2.0445   -2.0638    0.7918 C.ar    1  LIG1        0.1702
     28 C           4.0096   -0.3853   -0.5277 C.ar    1  LIG1        0.1978
     29 C           0.1536   -2.8704   -2.2947 C.3     1  LIG1        0.1143
     30 C          -3.3974   -1.9034    0.4578 C.ar    1  LIG1        0.1621
     31 C          -1.5004   -3.3483    0.9251 C.ar    1  LIG1       -0.0157
     32 C          -4.1676   -3.0309    0.1583 C.ar    1  LIG1       -0.0163
     33 C           0.6552   -2.3765   -3.6468 C.3     1  LIG1        0.0783
     34 C          -2.2810   -4.4679    0.6397 C.ar    1  LIG1       -0.0581
     35 C          -3.6076   -4.3084    0.2439 C.ar    1  LIG1       -0.0581
     36 C           5.7993   -1.2096   -1.7166 C.ar    1  LIG1        0.0315
     37 C           6.0711    0.6019   -0.2850 C.ar    1  LIG1        0.0315
     38 C           6.6463   -0.2759   -1.1719 C.ar    1  LIG1       -0.0254
     39 C          -5.2508   -0.4671    0.7311 C.3     1  LIG1        0.0790
     40 H           1.4435   -3.1082   -5.2621 H       1  LIG1        0.2095
     41 H           1.2666    1.2044    2.8157 H       1  LIG1        0.1754
     42 H          -5.2192   -2.9694    6.1649 H       1  LIG1        0.0238
     43 H          -6.3650   -2.1056    7.1804 H       1  LIG1        0.0238
     44 H          -4.6500   -2.1449    7.6214 H       1  LIG1        0.0238
     45 H          -5.9006   -1.6148    4.1014 H       1  LIG1        0.0238
     46 H          -5.9035    0.1517    4.1523 H       1  LIG1        0.0238
     47 H          -7.1062   -0.7679    5.0710 H       1  LIG1        0.0238
     48 H          -4.8679    0.4497    7.7851 H       1  LIG1        0.0238
     49 H          -6.5412    0.3019    7.2413 H       1  LIG1        0.0238
     50 H          -5.4378    1.3673    6.3757 H       1  LIG1        0.0238
     51 H          -3.7200   -2.6613    4.5196 H       1  LIG1        0.0621
     52 H          -3.1607    1.2591    6.2778 H       1  LIG1        0.0621
     53 H          -1.4166   -2.6262    3.7379 H       1  LIG1        0.0637
     54 H          -0.8741    1.2975    5.4352 H       1  LIG1        0.0637
     55 H          -0.6484   -3.5996   -2.4632 H       1  LIG1        0.0720
     56 H           0.9310   -3.4255   -1.7515 H       1  LIG1        0.0720
     57 H          -0.4709   -3.4884    1.2453 H       1  LIG1        0.0655
     58 H          -5.2004   -2.9393   -0.1619 H       1  LIG1        0.0655
     59 H          -0.1332   -1.8226   -4.1672 H       1  LIG1        0.0591
     60 H           1.5106   -1.7045   -3.5318 H       1  LIG1        0.0591
     61 H          -1.8515   -5.4636    0.7184 H       1  LIG1        0.0619
     62 H          -4.2097   -5.1809    0.0019 H       1  LIG1        0.0619
     63 H           6.1581   -1.9521   -2.4236 H       1  LIG1        0.0831
     64 H           6.6579    1.3792    0.1961 H       1  LIG1        0.0831
     65 H           7.6967   -0.2360   -1.4233 H       1  LIG1        0.0648
     66 H          -5.4239    0.5863    0.9714 H       1  LIG1        0.0660
     67 H          -5.5288   -1.0582    1.6106 H       1  LIG1        0.0660
     68 H          -5.8807   -0.7239   -0.1261 H       1  LIG1        0.0660
@<TRIPOS>BOND
     1     1     2    2
     2     1     3    2
     3     1     8    1
     4     1    20    1
     5     4    24    1
     6     4    27    1
     7     5    25    1
     8     5    29    1
     9     6    30    1
    10     6    39    1
    11     7    33    1
    12     8    23    1
    13     9    23   ar
    14     9    26   ar
    15    10    25   ar
    16    10    26   ar
    17    11    28   ar
    18    11    36   ar
    19    12    28   ar
    20    12    37   ar
    21    13    14    1
    22    13    15    1
    23    13    16    1
    24    13    17    1
    25    14    18   ar
    26    14    19   ar
    27    18    21   ar
    28    19    22   ar
    29    20    21   ar
    30    20    22   ar
    31    23    24   ar
    32    24    25   ar
    33    26    28    1
    34    27    30   ar
    35    27    31   ar
    36    29    33    1
    37    30    32   ar
    38    31    34   ar
    39    32    35   ar
    40    34    35   ar
    41    36    38   ar
    42    37    38   ar
    43     7    40    1
    44     8    41    1
    45    15    42    1
    46    15    43    1
    47    15    44    1
    48    16    45    1
    49    16    46    1
    50    16    47    1
    51    17    48    1
    52    17    49    1
    53    17    50    1
    54    18    51    1
    55    19    52    1
    56    21    53    1
    57    22    54    1
    58    29    55    1
    59    29    56    1
    60    31    57    1
    61    32    58    1
    62    33    59    1
    63    33    60    1
    64    34    61    1
    65    35    62    1
    66    36    63    1
    67    37    64    1
    68    38    65    1
    69    39    66    1
    70    39    67    1
    71    39    68    1
@<TRIPOS>MOLECULE
104865
 68 71 0 0 0
SMALL
GASTEIGER

@<TRIPOS>ATOM
      1 S           0.1643    1.9895    2.6298 S.O2    1  LIG1        0.0736
      2 O           0.1819    2.4712    1.2653 O.2     1  LIG1       -0.1499
      3 O          -1.0196    2.1393    3.4553 O.2     1  LIG1       -0.1499
      4 O          -1.3053   -0.8885    1.0931 O.3     1  LIG1       -0.4435
      5 O          -0.4128   -1.6973   -1.5309 O.3     1  LIG1       -0.4715
      6 O          -3.7666   -0.5336    0.2155 O.3     1  LIG1       -0.4914
      7 O           1.0465   -3.3623   -4.4677 O.3     1  LIG1       -0.3917
      8 N           0.5498    0.3468    2.7002 N.pl3   1  LIG1       -0.1963
      9 N           2.2179   -0.0388    1.1351 N.ar    1  LIG1       -0.2044
     10 N           1.7498   -1.0733   -0.9618 N.ar    1  LIG1       -0.1866
     11 N           4.3576   -0.5808   -1.7716 N.ar    1  LIG1       -0.2331
     12 N           4.9458   -0.1226    0.4968 N.ar    1  LIG1       -0.2331
     13 C           4.7050    4.8383    5.6145 C.3     1  LIG1       -0.0127
     14 C           3.5729    4.0828    4.8943 C.ar    1  LIG1       -0.0419
     15 C           4.8272    6.2605    5.0267 C.3     1  LIG1       -0.0560
     16 C           6.0419    4.0909    5.4207 C.3     1  LIG1       -0.0560
     17 C           4.4863    4.9896    7.1374 C.3     1  LIG1       -0.0560
     18 C           3.6604    3.8272    3.5088 C.ar    1  LIG1       -0.0562
     19 C           2.4181    3.6393    5.5624 C.ar    1  LIG1       -0.0562
     20 C           1.5118    2.7348    3.5098 C.ar    1  LIG1        0.1086
     21 C           2.6417    3.1618    2.8192 C.ar    1  LIG1       -0.0348
     22 C           1.3922    2.9758    4.8794 C.ar    1  LIG1       -0.0348
     23 C           0.9260   -0.2092    1.4468 C.ar    1  LIG1        0.1883
     24 C          -0.0195   -0.8054    0.6349 C.ar    1  LIG1        0.2307
     25 C           0.4644   -1.2097   -0.5890 C.ar    1  LIG1        0.2642
     26 C           2.5966   -0.4947   -0.0787 C.ar    1  LIG1        0.2027
     27 C          -2.0398   -2.0182    0.8002 C.ar    1  LIG1        0.1702
     28 C           4.0329   -0.3819   -0.4698 C.ar    1  LIG1        0.1978
     29 C           0.1330   -2.7609   -2.3144 C.3     1  LIG1        0.1143
     30 C          -3.3532   -1.8339    0.3381 C.ar    1  LIG1        0.1621
     31 C          -1.5308   -3.3051    1.0151 C.ar    1  LIG1       -0.0157
     32 C          -4.1265   -2.9569    0.0350 C.ar    1  LIG1       -0.0163
     33 C           0.6552   -2.2590   -3.6554 C.3     1  LIG1        0.0783
     34 C          -2.3119   -4.4167    0.7058 C.ar    1  LIG1       -0.0581
     35 C          -3.6033   -4.2423    0.2109 C.ar    1  LIG1       -0.0581
     36 C           5.6617   -0.5102   -2.0921 C.ar    1  LIG1        0.0315
     37 C           6.2355   -0.0730    0.1170 C.ar    1  LIG1        0.0315
     38 C           6.6552   -0.2606   -1.1776 C.ar    1  LIG1       -0.0254
     39 C          -5.0974   -0.3070   -0.2259 C.3     1  LIG1        0.0790
     40 H           1.4420   -2.9856   -5.2725 H       1  LIG1        0.2095
     41 H          -0.2489   -0.1252    3.1260 H       1  LIG1        0.1754
     42 H           5.0854    6.2473    3.9620 H       1  LIG1        0.0238
     43 H           5.6072    6.8348    5.5401 H       1  LIG1        0.0238
     44 H           3.8851    6.8124    5.1295 H       1  LIG1        0.0238
     45 H           6.3419    4.0420    4.3684 H       1  LIG1        0.0238
     46 H           5.9756    3.0619    5.7932 H       1  LIG1        0.0238
     47 H           6.8551    4.5897    5.9609 H       1  LIG1        0.0238
     48 H           3.5783    5.5617    7.3610 H       1  LIG1        0.0238
     49 H           5.3228    5.5219    7.6059 H       1  LIG1        0.0238
     50 H           4.4063    4.0144    7.6317 H       1  LIG1        0.0238
     51 H           4.5280    4.1559    2.9401 H       1  LIG1        0.0621
     52 H           2.2781    3.8074    6.6270 H       1  LIG1        0.0621
     53 H           2.7366    2.9887    1.7491 H       1  LIG1        0.0637
     54 H           0.5036    2.6658    5.4240 H       1  LIG1        0.0637
     55 H          -0.6846   -3.4688   -2.4983 H       1  LIG1        0.0720
     56 H           0.8938   -3.3425   -1.7754 H       1  LIG1        0.0720
     57 H          -0.5312   -3.4527    1.4119 H       1  LIG1        0.0655
     58 H          -5.1396   -2.8678   -0.3420 H       1  LIG1        0.0655
     59 H          -0.1219   -1.6932   -4.1797 H       1  LIG1        0.0591
     60 H           1.5160   -1.5970   -3.5246 H       1  LIG1        0.0591
     61 H          -1.9155   -5.4191    0.8498 H       1  LIG1        0.0619
     62 H          -4.2110   -5.1107   -0.0340 H       1  LIG1        0.0619
     63 H           5.8901   -0.6692   -3.1423 H       1  LIG1        0.0831
     64 H           6.9456    0.1260    0.9148 H       1  LIG1        0.0831
     65 H           7.6978   -0.2161   -1.4580 H       1  LIG1        0.0648
     66 H          -5.2657    0.7742   -0.2382 H       1  LIG1        0.0660
     67 H          -5.8245   -0.7483    0.4638 H       1  LIG1        0.0660
     68 H          -5.2417   -0.6787   -1.2454 H       1  LIG1        0.0660
@<TRIPOS>BOND
     1     1     2    2
     2     1     3    2
     3     1     8    1
     4     1    20    1
     5     4    24    1
     6     4    27    1
     7     5    25    1
     8     5    29    1
     9     6    30    1
    10     6    39    1
    11     7    33    1
    12     8    23    1
    13     9    23   ar
    14     9    26   ar
    15    10    25   ar
    16    10    26   ar
    17    11    28   ar
    18    11    36   ar
    19    12    28   ar
    20    12    37   ar
    21    13    14    1
    22    13    15    1
    23    13    16    1
    24    13    17    1
    25    14    18   ar
    26    14    19   ar
    27    18    21   ar
    28    19    22   ar
    29    20    21   ar
    30    20    22   ar
    31    23    24   ar
    32    24    25   ar
    33    26    28    1
    34    27    30   ar
    35    27    31   ar
    36    29    33    1
    37    30    32   ar
    38    31    34   ar
    39    32    35   ar
    40    34    35   ar
    41    36    38   ar
    42    37    38   ar
    43     7    40    1
    44     8    41    1
    45    15    42    1
    46    15    43    1
    47    15    44    1
    48    16    45    1
    49    16    46    1
    50    16    47    1
    51    17    48    1
    52    17    49    1
    53    17    50    1
    54    18    51    1
    55    19    52    1
    56    21    53    1
    57    22    54    1
    58    29    55    1
    59    29    56    1
    60    31    57    1
    61    32    58    1
    62    33    59    1
    63    33    60    1
    64    34    61    1
    65    35    62    1
    66    36    63    1
    67    37    64    1
    68    38    65    1
    69    39    66    1
    70    39    67    1
    71    39    68    1
@<TRIPOS>MOLECULE
104865
 68 71 0 0 0
SMALL
GASTEIGER

@<TRIPOS>ATOM
      1 S           0.8305   -0.7184    3.9997 S.O2    1  LIG1        0.0736
      2 O          -0.1793   -0.4178    4.9977 O.2     1  LIG1       -0.1499
      3 O           0.9800   -2.0640    3.4852 O.2     1  LIG1       -0.1499
      4 O          -1.3570   -0.8240    1.1404 O.3     1  LIG1       -0.4435
      5 O          -0.5475   -1.5796   -1.4975 O.3     1  LIG1       -0.4715
      6 O          -3.9290   -0.5734    0.5495 O.3     1  LIG1       -0.4914
      7 O          -1.3698    0.1314   -3.7431 O.3     1  LIG1       -0.3917
      8 N           0.5462    0.3636    2.7430 N.pl3   1  LIG1       -0.1963
      9 N           2.1699    0.0076    1.1266 N.ar    1  LIG1       -0.2044
     10 N           1.6544   -0.9869   -0.9762 N.ar    1  LIG1       -0.1866
     11 N           4.3991   -1.2594   -1.4355 N.ar    1  LIG1       -0.2331
     12 N           4.7693    0.4885    0.1491 N.ar    1  LIG1       -0.2331
     13 C           6.2465    0.9149    6.3834 C.3     1  LIG1       -0.0127
     14 C           4.8919    0.5177    5.7675 C.ar    1  LIG1       -0.0419
     15 C           6.2247    0.7954    7.9251 C.3     1  LIG1       -0.0560
     16 C           6.5489    2.3759    5.9984 C.3     1  LIG1       -0.0560
     17 C           7.4202    0.0354    5.8930 C.3     1  LIG1       -0.0560
     18 C           3.6818    0.9450    6.3508 C.ar    1  LIG1       -0.0562
     19 C           4.8055   -0.2511    4.5923 C.ar    1  LIG1       -0.0562
     20 C           2.3914   -0.1836    4.6503 C.ar    1  LIG1        0.1086
     21 C           2.4417    0.5920    5.8072 C.ar    1  LIG1       -0.0348
     22 C           3.5702   -0.6125    4.0454 C.ar    1  LIG1       -0.0348
     23 C           0.8767   -0.1232    1.4500 C.ar    1  LIG1        0.1883
     24 C          -0.0796   -0.7302    0.6613 C.ar    1  LIG1        0.2307
     25 C           0.3691   -1.0964   -0.5894 C.ar    1  LIG1        0.2642
     26 C           2.5270   -0.4588   -0.0885 C.ar    1  LIG1        0.2027
     27 C          -2.0660   -1.9835    0.9012 C.ar    1  LIG1        0.1702
     28 C           3.9657   -0.4033   -0.4774 C.ar    1  LIG1        0.1978
     29 C          -0.0807   -1.7152   -2.8446 C.3     1  LIG1        0.1143
     30 C          -3.4259   -1.8494    0.5853 C.ar    1  LIG1        0.1621
     31 C          -1.4945   -3.2561    1.0262 C.ar    1  LIG1       -0.0157
     32 C          -4.1759   -2.9904    0.2857 C.ar    1  LIG1       -0.0163
     33 C          -0.0436   -0.3661   -3.5642 C.3     1  LIG1        0.0783
     34 C          -2.2556   -4.3902    0.7424 C.ar    1  LIG1       -0.0581
     35 C          -3.5886   -4.2564    0.3575 C.ar    1  LIG1       -0.0581
     36 C           5.7051   -1.2057   -1.7539 C.ar    1  LIG1        0.0315
     37 C           6.0622    0.5072   -0.2239 C.ar    1  LIG1        0.0315
     38 C           6.5910   -0.3295   -1.1767 C.ar    1  LIG1       -0.0254
     39 C          -5.3017   -0.4556    0.9055 C.3     1  LIG1        0.0790
     40 H          -1.2922    1.0635   -4.0069 H       1  LIG1        0.2095
     41 H          -0.4094    0.7103    2.8269 H       1  LIG1        0.1754
     42 H           5.5428    1.5148    8.3907 H       1  LIG1        0.0238
     43 H           7.2164    0.9899    8.3508 H       1  LIG1        0.0238
     44 H           5.9186   -0.2092    8.2397 H       1  LIG1        0.0238
     45 H           5.7822    3.0618    6.3770 H       1  LIG1        0.0238
     46 H           6.5899    2.4994    4.9096 H       1  LIG1        0.0238
     47 H           7.5127    2.7013    6.4068 H       1  LIG1        0.0238
     48 H           7.2258   -1.0277    6.0781 H       1  LIG1        0.0238
     49 H           8.3523    0.2943    6.4092 H       1  LIG1        0.0238
     50 H           7.6115    0.1659    4.8220 H       1  LIG1        0.0238
     51 H           3.6824    1.5635    7.2453 H       1  LIG1        0.0621
     52 H           5.6952   -0.5919    4.0701 H       1  LIG1        0.0621
     53 H           1.5290    0.9218    6.2985 H       1  LIG1        0.0637
     54 H           3.5423   -1.2235    3.1464 H       1  LIG1        0.0637
     55 H          -0.8038   -2.3672   -3.3479 H       1  LIG1        0.0720
     56 H           0.8874   -2.2283   -2.8865 H       1  LIG1        0.0720
     57 H          -0.4599   -3.3782    1.3358 H       1  LIG1        0.0655
     58 H          -5.2130   -2.9181   -0.0246 H       1  LIG1        0.0655
     59 H           0.5200    0.3805   -2.9979 H       1  LIG1        0.0591
     60 H           0.4065   -0.4790   -4.5547 H       1  LIG1        0.0591
     61 H          -1.8052   -5.3770    0.8143 H       1  LIG1        0.0619
     62 H          -4.1743   -5.1399    0.1158 H       1  LIG1        0.0619
     63 H           6.0267   -1.9137   -2.5126 H       1  LIG1        0.0831
     64 H           6.6803    1.2411    0.2854 H       1  LIG1        0.0831
     65 H           7.6354   -0.3005   -1.4540 H       1  LIG1        0.0648
     66 H          -5.4968    0.5959    1.1375 H       1  LIG1        0.0660
     67 H          -5.5423   -1.0425    1.7994 H       1  LIG1        0.0660
     68 H          -5.9444   -0.7381    0.0663 H       1  LIG1        0.0660
@<TRIPOS>BOND
     1     1     2    2
     2     1     3    2
     3     1     8    1
     4     1    20    1
     5     4    24    1
     6     4    27    1
     7     5    25    1
     8     5    29    1
     9     6    30    1
    10     6    39    1
    11     7    33    1
    12     8    23    1
    13     9    23   ar
    14     9    26   ar
    15    10    25   ar
    16    10    26   ar
    17    11    28   ar
    18    11    36   ar
    19    12    28   ar
    20    12    37   ar
    21    13    14    1
    22    13    15    1
    23    13    16    1
    24    13    17    1
    25    14    18   ar
    26    14    19   ar
    27    18    21   ar
    28    19    22   ar
    29    20    21   ar
    30    20    22   ar
    31    23    24   ar
    32    24    25   ar
    33    26    28    1
    34    27    30   ar
    35    27    31   ar
    36    29    33    1
    37    30    32   ar
    38    31    34   ar
    39    32    35   ar
    40    34    35   ar
    41    36    38   ar
    42    37    38   ar
    43     7    40    1
    44     8    41    1
    45    15    42    1
    46    15    43    1
    47    15    44    1
    48    16    45    1
    49    16    46    1
    50    16    47    1
    51    17    48    1
    52    17    49    1
    53    17    50    1
    54    18    51    1
    55    19    52    1
    56    21    53    1
    57    22    54    1
    58    29    55    1
    59    29    56    1
    60    31    57    1
    61    32    58    1
    62    33    59    1
    63    33    60    1
    64    34    61    1
    65    35    62    1
    66    36    63    1
    67    37    64    1
    68    38    65    1
    69    39    66    1
    70    39    67    1
    71    39    68    1
@<TRIPOS>MOLECULE
104865
 68 71 0 0 0
SMALL
GASTEIGER

@<TRIPOS>ATOM
      1 S           0.8324   -0.7307    4.0092 S.O2    1  LIG1        0.0736
      2 O          -0.1729   -0.4370    5.0108 O.2     1  LIG1       -0.1499
      3 O           0.9901   -2.0760    3.4954 O.2     1  LIG1       -0.1499
      4 O          -1.3679   -0.8297    1.1375 O.3     1  LIG1       -0.4435
      5 O          -0.5553   -1.5771   -1.5002 O.3     1  LIG1       -0.4715
      6 O          -3.9386   -0.5804    0.5475 O.3     1  LIG1       -0.4914
      7 O          -1.3628    0.1316   -3.7560 O.3     1  LIG1       -0.3917
      8 N           0.5335    0.3445    2.7499 N.pl3   1  LIG1       -0.1963
      9 N           2.1621   -0.0112    1.1377 N.ar    1  LIG1       -0.2044
     10 N           1.6479   -0.9934   -0.9716 N.ar    1  LIG1       -0.1866
     11 N           4.3912   -1.2632   -1.4340 N.ar    1  LIG1       -0.2331
     12 N           4.7648    0.4675    0.1684 N.ar    1  LIG1       -0.2331
     13 C           6.2580    0.9307    6.3498 C.3     1  LIG1       -0.0127
     14 C           4.8875    0.5667    5.7491 C.ar    1  LIG1       -0.0419
     15 C           7.2560    1.3593    5.2496 C.3     1  LIG1       -0.0560
     16 C           6.8153   -0.3087    7.0785 C.3     1  LIG1       -0.0560
     17 C           6.1962    2.0933    7.3669 C.3     1  LIG1       -0.0560
     18 C           3.6772    0.9825    6.3341 C.ar    1  LIG1       -0.0562
     19 C           4.8053   -0.2531    4.6054 C.ar    1  LIG1       -0.0562
     20 C           2.3939   -0.1814    4.6480 C.ar    1  LIG1        0.1086
     21 C           2.4401    0.6140    5.7923 C.ar    1  LIG1       -0.0348
     22 C           3.5742   -0.6285    4.0602 C.ar    1  LIG1       -0.0348
     23 C           0.8676   -0.1390    1.4569 C.ar    1  LIG1        0.1883
     24 C          -0.0886   -0.7388    0.6629 C.ar    1  LIG1        0.2307
     25 C           0.3616   -1.1011   -0.5882 C.ar    1  LIG1        0.2642
     26 C           2.5202   -0.4720   -0.0793 C.ar    1  LIG1        0.2027
     27 C          -2.0763   -1.9901    0.9009 C.ar    1  LIG1        0.1702
     28 C           3.9594   -0.4163   -0.4668 C.ar    1  LIG1        0.1978
     29 C          -0.0840   -1.7164   -2.8454 C.3     1  LIG1        0.1143
     30 C          -3.4365   -1.8566    0.5862 C.ar    1  LIG1        0.1621
     31 C          -1.5044   -3.2623    1.0281 C.ar    1  LIG1       -0.0157
     32 C          -4.1871   -2.9984    0.2915 C.ar    1  LIG1       -0.0163
     33 C          -0.0390   -0.3686   -3.5669 C.3     1  LIG1        0.0783
     34 C          -2.2661   -4.3970    0.7490 C.ar    1  LIG1       -0.0581
     35 C          -3.5998   -4.2642    0.3662 C.ar    1  LIG1       -0.0581
     36 C           5.6970   -1.2083   -1.7526 C.ar    1  LIG1        0.0315
     37 C           6.0574    0.4881   -0.2050 C.ar    1  LIG1        0.0315
     38 C           6.5846   -0.3394   -1.1667 C.ar    1  LIG1       -0.0254
     39 C          -5.3131   -0.4602    0.8957 C.3     1  LIG1        0.0790
     40 H          -1.2811    1.0621   -4.0243 H       1  LIG1        0.2095
     41 H          -0.4249    0.6830    2.8358 H       1  LIG1        0.1754
     42 H           7.5020    0.5404    4.5655 H       1  LIG1        0.0238
     43 H           8.2049    1.6940    5.6856 H       1  LIG1        0.0238
     44 H           6.8539    2.1853    4.6514 H       1  LIG1        0.0238
     45 H           6.9465   -1.1569    6.3965 H       1  LIG1        0.0238
     46 H           6.1407   -0.6346    7.8793 H       1  LIG1        0.0238
     47 H           7.7911   -0.0971    7.5307 H       1  LIG1        0.0238
     48 H           5.7525    2.9909    6.9206 H       1  LIG1        0.0238
     49 H           7.1986    2.3630    7.7206 H       1  LIG1        0.0238
     50 H           5.6122    1.8294    8.2558 H       1  LIG1        0.0238
     51 H           3.6640    1.5915    7.2341 H       1  LIG1        0.0621
     52 H           5.7038   -0.6298    4.1226 H       1  LIG1        0.0621
     53 H           1.5251    0.9424    6.2802 H       1  LIG1        0.0637
     54 H           3.5496   -1.2684    3.1815 H       1  LIG1        0.0637
     55 H          -0.8078   -2.3664   -3.3503 H       1  LIG1        0.0720
     56 H           0.8823   -2.2332   -2.8829 H       1  LIG1        0.0720
     57 H          -0.4694   -3.3839    1.3365 H       1  LIG1        0.0655
     58 H          -5.2247   -2.9272   -0.0172 H       1  LIG1        0.0655
     59 H           0.5225    0.3779   -2.9981 H       1  LIG1        0.0591
     60 H           0.4173   -0.4844   -4.5542 H       1  LIG1        0.0591
     61 H          -1.8159   -5.3837    0.8229 H       1  LIG1        0.0619
     62 H          -4.1861   -5.1483    0.1282 H       1  LIG1        0.0619
     63 H           6.0172   -1.9087   -2.5188 H       1  LIG1        0.0831
     64 H           6.6768    1.2160    0.3113 H       1  LIG1        0.0831
     65 H           7.6288   -0.3090   -1.4443 H       1  LIG1        0.0648
     66 H          -5.5087    0.5923    1.1221 H       1  LIG1        0.0660
     67 H          -5.5583   -1.0431    1.7908 H       1  LIG1        0.0660
     68 H          -5.9517   -0.7459    0.0544 H       1  LIG1        0.0660
@<TRIPOS>BOND
     1     1     2    2
     2     1     3    2
     3     1     8    1
     4     1    20    1
     5     4    24    1
     6     4    27    1
     7     5    25    1
     8     5    29    1
     9     6    30    1
    10     6    39    1
    11     7    33    1
    12     8    23    1
    13     9    23   ar
    14     9    26   ar
    15    10    25   ar
    16    10    26   ar
    17    11    28   ar
    18    11    36   ar
    19    12    28   ar
    20    12    37   ar
    21    13    14    1
    22    13    15    1
    23    13    16    1
    24    13    17    1
    25    14    18   ar
    26    14    19   ar
    27    18    21   ar
    28    19    22   ar
    29    20    21   ar
    30    20    22   ar
    31    23    24   ar
    32    24    25   ar
    33    26    28    1
    34    27    30   ar
    35    27    31   ar
    36    29    33    1
    37    30    32   ar
    38    31    34   ar
    39    32    35   ar
    40    34    35   ar
    41    36    38   ar
    42    37    38   ar
    43     7    40    1
    44     8    41    1
    45    15    42    1
    46    15    43    1
    47    15    44    1
    48    16    45    1
    49    16    46    1
    50    16    47    1
    51    17    48    1
    52    17    49    1
    53    17    50    1
    54    18    51    1
    55    19    52    1
    56    21    53    1
    57    22    54    1
    58    29    55    1
    59    29    56    1
    60    31    57    1
    61    32    58    1
    62    33    59    1
    63    33    60    1
    64    34    61    1
    65    35    62    1
    66    36    63    1
    67    37    64    1
    68    38    65    1
    69    39    66    1
    70    39    67    1
    71    39    68    1
@<TRIPOS>MOLECULE
104865
 68 71 0 0 0
SMALL
GASTEIGER

@<TRIPOS>ATOM
      1 S           0.7302   -0.5336    4.0139 S.O2    1  LIG1        0.0736
      2 O          -0.2457   -0.0584    4.9797 O.2     1  LIG1       -0.1499
      3 O           0.7591   -1.9261    3.6256 O.2     1  LIG1       -0.1499
      4 O          -1.3298   -0.8672    1.1003 O.3     1  LIG1       -0.4435
      5 O          -0.4328   -1.7446   -1.4963 O.3     1  LIG1       -0.4715
      6 O          -3.9075   -0.5900    0.4793 O.3     1  LIG1       -0.4914
      7 O          -1.4636   -2.6576   -4.1146 O.3     1  LIG1       -0.3917
      8 N           0.5295    0.4410    2.6609 N.pl3   1  LIG1       -0.1963
      9 N           2.2040   -0.0515    1.1361 N.ar    1  LIG1       -0.2044
     10 N           1.7311   -1.1202   -0.9413 N.ar    1  LIG1       -0.1866
     11 N           4.3281   -0.5525   -1.7680 N.ar    1  LIG1       -0.2331
     12 N           4.9513   -0.3643    0.5307 N.ar    1  LIG1       -0.2331
     13 C           6.2288    0.9040    6.3247 C.3     1  LIG1       -0.0127
     14 C           4.8631    0.5447    5.7115 C.ar    1  LIG1       -0.0419
     15 C           6.1629    0.7826    7.8631 C.3     1  LIG1       -0.0560
     16 C           6.5979    2.3538    5.9453 C.3     1  LIG1       -0.0560
     17 C           7.3849   -0.0042    5.8476 C.3     1  LIG1       -0.0560
     18 C           3.7092    1.2679    6.0822 C.ar    1  LIG1       -0.0562
     19 C           4.7041   -0.4928    4.7753 C.ar    1  LIG1       -0.0562
     20 C           2.3308   -0.0689    4.6192 C.ar    1  LIG1        0.1086
     21 C           2.4542    0.9627    5.5475 C.ar    1  LIG1       -0.0348
     22 C           3.4505   -0.8034    4.2373 C.ar    1  LIG1       -0.0348
     23 C           0.8992   -0.1516    1.4256 C.ar    1  LIG1        0.1883
     24 C          -0.0408   -0.7958    0.6446 C.ar    1  LIG1        0.2307
     25 C           0.4459   -1.2474   -0.5632 C.ar    1  LIG1        0.2642
     26 C           2.5837   -0.5487   -0.0608 C.ar    1  LIG1        0.2027
     27 C          -2.0535   -2.0160    0.8551 C.ar    1  LIG1        0.1702
     28 C           4.0222   -0.4741   -0.4484 C.ar    1  LIG1        0.1978
     29 C           0.0817   -2.8449   -2.2597 C.3     1  LIG1        0.1143
     30 C          -3.4022   -1.8656    0.5066 C.ar    1  LIG1        0.1621
     31 C          -1.5046   -3.2978    0.9913 C.ar    1  LIG1       -0.0157
     32 C          -4.1529   -2.9921    0.1583 C.ar    1  LIG1       -0.0163
     33 C          -0.0891   -2.5461   -3.7451 C.3     1  LIG1        0.0783
     34 C          -2.2653   -4.4190    0.6582 C.ar    1  LIG1       -0.0581
     35 C          -3.5800   -4.2643    0.2222 C.ar    1  LIG1       -0.0581
     36 C           5.6312   -0.5045   -2.0955 C.ar    1  LIG1        0.0315
     37 C           6.2392   -0.3282    0.1411 C.ar    1  LIG1        0.0315
     38 C           6.6408   -0.3945   -1.1719 C.ar    1  LIG1       -0.0254
     39 C          -5.2451   -0.4862    0.9603 C.3     1  LIG1        0.0790
     40 H          -1.5522   -2.2689   -5.0007 H       1  LIG1        0.2095
     41 H          -0.4119    0.8340    2.6764 H       1  LIG1        0.1754
     42 H           5.4432    1.4804    8.3047 H       1  LIG1        0.0238
     43 H           7.1367    0.9985    8.3184 H       1  LIG1        0.0238
     44 H           5.8698   -0.2292    8.1671 H       1  LIG1        0.0238
     45 H           5.8811    3.0805    6.3433 H       1  LIG1        0.0238
     46 H           6.6260    2.4815    4.8567 H       1  LIG1        0.0238
     47 H           7.5840    2.6266    6.3389 H       1  LIG1        0.0238
     48 H           7.2062   -1.0541    6.1080 H       1  LIG1        0.0238
     49 H           8.3342    0.2864    6.3135 H       1  LIG1        0.0238
     50 H           7.5275    0.0594    4.7625 H       1  LIG1        0.0238
     51 H           3.7749    2.0802    6.8026 H       1  LIG1        0.0621
     52 H           5.5468   -1.0906    4.4402 H       1  LIG1        0.0621
     53 H           1.5825    1.5298    5.8708 H       1  LIG1        0.0637
     54 H           3.3626   -1.6162    3.5191 H       1  LIG1        0.0637
     55 H          -0.5106   -3.7255   -1.9876 H       1  LIG1        0.0720
     56 H           1.1312   -3.0775   -2.0469 H       1  LIG1        0.0720
     57 H          -0.4831   -3.4349    1.3356 H       1  LIG1        0.0655
     58 H          -5.1768   -2.8981   -0.1885 H       1  LIG1        0.0655
     59 H           0.2498   -1.5328   -3.9811 H       1  LIG1        0.0591
     60 H           0.4714   -3.2701   -4.3437 H       1  LIG1        0.0591
     61 H          -1.8270   -5.4115    0.7237 H       1  LIG1        0.0619
     62 H          -4.1628   -5.1356   -0.0663 H       1  LIG1        0.0619
     63 H           5.8440   -0.5600   -3.1595 H       1  LIG1        0.0831
     64 H           6.9642   -0.2432    0.9456 H       1  LIG1        0.0831
     65 H           7.6822   -0.3623   -1.4592 H       1  LIG1        0.0648
     66 H          -5.4238    0.5591    1.2301 H       1  LIG1        0.0660
     67 H          -5.4064   -1.0931    1.8590 H       1  LIG1        0.0660
     68 H          -5.9579   -0.7566    0.1753 H       1  LIG1        0.0660
@<TRIPOS>BOND
     1     1     2    2
     2     1     3    2
     3     1     8    1
     4     1    20    1
     5     4    24    1
     6     4    27    1
     7     5    25    1
     8     5    29    1
     9     6    30    1
    10     6    39    1
    11     7    33    1
    12     8    23    1
    13     9    23   ar
    14     9    26   ar
    15    10    25   ar
    16    10    26   ar
    17    11    28   ar
    18    11    36   ar
    19    12    28   ar
    20    12    37   ar
    21    13    14    1
    22    13    15    1
    23    13    16    1
    24    13    17    1
    25    14    18   ar
    26    14    19   ar
    27    18    21   ar
    28    19    22   ar
    29    20    21   ar
    30    20    22   ar
    31    23    24   ar
    32    24    25   ar
    33    26    28    1
    34    27    30   ar
    35    27    31   ar
    36    29    33    1
    37    30    32   ar
    38    31    34   ar
    39    32    35   ar
    40    34    35   ar
    41    36    38   ar
    42    37    38   ar
    43     7    40    1
    44     8    41    1
    45    15    42    1
    46    15    43    1
    47    15    44    1
    48    16    45    1
    49    16    46    1
    50    16    47    1
    51    17    48    1
    52    17    49    1
    53    17    50    1
    54    18    51    1
    55    19    52    1
    56    21    53    1
    57    22    54    1
    58    29    55    1
    59    29    56    1
    60    31    57    1
    61    32    58    1
    62    33    59    1
    63    33    60    1
    64    34    61    1
    65    35    62    1
    66    36    63    1
    67    37    64    1
    68    38    65    1
    69    39    66    1
    70    39    67    1
    71    39    68    1
@<TRIPOS>MOLECULE
104865
 68 71 0 0 0
SMALL
GASTEIGER

@<TRIPOS>ATOM
      1 S           0.7860   -0.6323    3.9951 S.O2    1  LIG1        0.0736
      2 O          -0.1847   -0.2306    4.9935 O.2     1  LIG1       -0.1499
      3 O           0.8631   -2.0080    3.5492 O.2     1  LIG1       -0.1499
      4 O          -1.3530   -0.7962    1.0569 O.3     1  LIG1       -0.4435
      5 O          -0.4503   -1.7340   -1.5051 O.3     1  LIG1       -0.4715
      6 O          -3.7992   -0.4922    0.1122 O.3     1  LIG1       -0.4914
      7 O          -1.3683   -2.5264   -4.2127 O.3     1  LIG1       -0.3917
      8 N           0.5255    0.3859    2.6801 N.pl3   1  LIG1       -0.1963
      9 N           2.1969   -0.0786    1.1417 N.ar    1  LIG1       -0.2044
     10 N           1.7257   -1.1357   -0.9436 N.ar    1  LIG1       -0.1866
     11 N           4.3561   -0.6455   -1.7327 N.ar    1  LIG1       -0.2331
     12 N           4.9298   -0.2987    0.5598 N.ar    1  LIG1       -0.2331
     13 C           6.2531    0.9154    6.3045 C.3     1  LIG1       -0.0127
     14 C           4.8990    0.5365    5.6783 C.ar    1  LIG1       -0.0419
     15 C           6.1742    0.7864    7.8420 C.3     1  LIG1       -0.0560
     16 C           6.6014    2.3724    5.9344 C.3     1  LIG1       -0.0560
     17 C           7.4275    0.0269    5.8358 C.3     1  LIG1       -0.0560
     18 C           3.7287    1.2260    6.0580 C.ar    1  LIG1       -0.0562
     19 C           4.7660   -0.4903    4.7263 C.ar    1  LIG1       -0.0562
     20 C           2.3816   -0.1307    4.5853 C.ar    1  LIG1        0.1086
     21 C           2.4792    0.8941    5.5261 C.ar    1  LIG1       -0.0348
     22 C           3.5193   -0.8283    4.1882 C.ar    1  LIG1       -0.0348
     23 C           0.8902   -0.1589    1.4215 C.ar    1  LIG1        0.1883
     24 C          -0.0554   -0.7703    0.6241 C.ar    1  LIG1        0.2307
     25 C           0.4339   -1.2387   -0.5755 C.ar    1  LIG1        0.2642
     26 C           2.5787   -0.5737   -0.0556 C.ar    1  LIG1        0.2027
     27 C          -2.0904   -1.9404    0.8315 C.ar    1  LIG1        0.1702
     28 C           4.0225   -0.4988   -0.4263 C.ar    1  LIG1        0.1978
     29 C           0.0587   -2.8282   -2.2791 C.3     1  LIG1        0.1143
     30 C          -3.3890   -1.7837    0.3215 C.ar    1  LIG1        0.1621
     31 C          -1.5937   -3.2118    1.1459 C.ar    1  LIG1       -0.0157
     32 C          -4.1521   -2.9242    0.0578 C.ar    1  LIG1       -0.0163
     33 C          -0.0146   -2.4725   -3.7602 C.3     1  LIG1        0.0783
     34 C          -2.3660   -4.3405    0.8799 C.ar    1  LIG1       -0.0581
     35 C          -3.6372   -4.1969    0.3272 C.ar    1  LIG1       -0.0581
     36 C           5.6639   -0.5694   -2.0386 C.ar    1  LIG1        0.0315
     37 C           6.2228   -0.2369    0.1929 C.ar    1  LIG1        0.0315
     38 C           6.6512   -0.3654   -1.1060 C.ar    1  LIG1       -0.0254
     39 C          -5.1388   -0.2989   -0.3185 C.3     1  LIG1        0.0790
     40 H          -1.3834   -2.1472   -5.1073 H       1  LIG1        0.2095
     41 H          -0.4282    0.7422    2.7277 H       1  LIG1        0.1754
     42 H           5.4450    1.4762    8.2805 H       1  LIG1        0.0238
     43 H           7.1417    1.0082    8.3075 H       1  LIG1        0.0238
     44 H           5.8864   -0.2293    8.1385 H       1  LIG1        0.0238
     45 H           5.8660    3.0849    6.3241 H       1  LIG1        0.0238
     46 H           6.6425    2.5041    4.8467 H       1  LIG1        0.0238
     47 H           7.5769    2.6613    6.3427 H       1  LIG1        0.0238
     48 H           7.2592   -1.0273    6.0856 H       1  LIG1        0.0238
     49 H           8.3663    0.3267    6.3170 H       1  LIG1        0.0238
     50 H           7.5840    0.1011    4.7534 H       1  LIG1        0.0238
     51 H           3.7740    2.0324    6.7871 H       1  LIG1        0.0621
     52 H           5.6240   -1.0596    4.3796 H       1  LIG1        0.0621
     53 H           1.5943    1.4325    5.8579 H       1  LIG1        0.0637
     54 H           3.4505   -1.6327    3.4595 H       1  LIG1        0.0637
     55 H          -0.5872   -3.6885   -2.0702 H       1  LIG1        0.0720
     56 H           1.0815   -3.1173   -2.0115 H       1  LIG1        0.0720
     57 H          -0.6102   -3.3335    1.5921 H       1  LIG1        0.0655
     58 H          -5.1492   -2.8596   -0.3640 H       1  LIG1        0.0655
     59 H           0.3666   -1.4627   -3.9404 H       1  LIG1        0.0591
     60 H           0.5579   -3.1930   -4.3516 H       1  LIG1        0.0591
     61 H          -1.9763   -5.3304    1.1026 H       1  LIG1        0.0619
     62 H          -4.2359   -5.0784    0.1109 H       1  LIG1        0.0619
     63 H           5.9003   -0.6803   -3.0931 H       1  LIG1        0.0831
     64 H           6.9268   -0.0746    1.0039 H       1  LIG1        0.0831
     65 H           7.6961   -0.3093   -1.3767 H       1  LIG1        0.0648
     66 H          -5.3201    0.7790   -0.3706 H       1  LIG1        0.0660
     67 H          -5.8520   -0.7199    0.3981 H       1  LIG1        0.0660
     68 H          -5.2920   -0.7119   -1.3206 H       1  LIG1        0.0660
@<TRIPOS>BOND
     1     1     2    2
     2     1     3    2
     3     1     8    1
     4     1    20    1
     5     4    24    1
     6     4    27    1
     7     5    25    1
     8     5    29    1
     9     6    30    1
    10     6    39    1
    11     7    33    1
    12     8    23    1
    13     9    23   ar
    14     9    26   ar
    15    10    25   ar
    16    10    26   ar
    17    11    28   ar
    18    11    36   ar
    19    12    28   ar
    20    12    37   ar
    21    13    14    1
    22    13    15    1
    23    13    16    1
    24    13    17    1
    25    14    18   ar
    26    14    19   ar
    27    18    21   ar
    28    19    22   ar
    29    20    21   ar
    30    20    22   ar
    31    23    24   ar
    32    24    25   ar
    33    26    28    1
    34    27    30   ar
    35    27    31   ar
    36    29    33    1
    37    30    32   ar
    38    31    34   ar
    39    32    35   ar
    40    34    35   ar
    41    36    38   ar
    42    37    38   ar
    43     7    40    1
    44     8    41    1
    45    15    42    1
    46    15    43    1
    47    15    44    1
    48    16    45    1
    49    16    46    1
    50    16    47    1
    51    17    48    1
    52    17    49    1
    53    17    50    1
    54    18    51    1
    55    19    52    1
    56    21    53    1
    57    22    54    1
    58    29    55    1
    59    29    56    1
    60    31    57    1
    61    32    58    1
    62    33    59    1
    63    33    60    1
    64    34    61    1
    65    35    62    1
    66    36    63    1
    67    37    64    1
    68    38    65    1
    69    39    66    1
    70    39    67    1
    71    39    68    1
@<TRIPOS>MOLECULE
104865
 68 71 0 0 0
SMALL
GASTEIGER

@<TRIPOS>ATOM
      1 S           0.7259   -0.5416    4.0559 S.O2    1  LIG1        0.0736
      2 O          -0.2020   -0.0397    5.0499 O.2     1  LIG1       -0.1499
      3 O           0.7095   -1.9369    3.6654 O.2     1  LIG1       -0.1499
      4 O          -1.3397   -0.8891    1.1405 O.3     1  LIG1       -0.4435
      5 O          -0.4767   -1.7009   -1.4692 O.3     1  LIG1       -0.4715
      6 O          -3.8738   -0.5797    0.4711 O.3     1  LIG1       -0.4914
      7 O          -1.3593    0.1284   -3.5763 O.3     1  LIG1       -0.3917
      8 N           0.5110    0.4238    2.7011 N.pl3   1  LIG1       -0.1963
      9 N           2.1884   -0.0434    1.1684 N.ar    1  LIG1       -0.2044
     10 N           1.7108   -1.0997   -0.9156 N.ar    1  LIG1       -0.1866
     11 N           4.4654   -1.4040   -1.2934 N.ar    1  LIG1       -0.2331
     12 N           4.7699    0.5108    0.1027 N.ar    1  LIG1       -0.2331
     13 C           6.2563    0.8845    6.2918 C.3     1  LIG1       -0.0127
     14 C           4.8877    0.5368    5.6755 C.ar    1  LIG1       -0.0419
     15 C           7.3869   -0.0493    5.7992 C.3     1  LIG1       -0.0560
     16 C           6.1448    0.7486    7.8230 C.3     1  LIG1       -0.0560
     17 C           6.7033    2.3258    5.9551 C.3     1  LIG1       -0.0560
     18 C           4.5752   -0.7792    5.2783 C.ar    1  LIG1       -0.0562
     19 C           3.8765    1.5088    5.5445 C.ar    1  LIG1       -0.0562
     20 C           2.3486   -0.1188    4.6230 C.ar    1  LIG1        0.1086
     21 C           3.3219   -1.1052    4.7516 C.ar    1  LIG1       -0.0348
     22 C           2.6183    1.1905    5.0232 C.ar    1  LIG1       -0.0348
     23 C           0.8862   -0.1648    1.4643 C.ar    1  LIG1        0.1883
     24 C          -0.0528   -0.8040    0.6801 C.ar    1  LIG1        0.2307
     25 C           0.4199   -1.2000   -0.5518 C.ar    1  LIG1        0.2642
     26 C           2.5672   -0.5470   -0.0256 C.ar    1  LIG1        0.2027
     27 C          -2.0625   -2.0326    0.8638 C.ar    1  LIG1        0.1702
     28 C           4.0045   -0.4785   -0.4146 C.ar    1  LIG1        0.1978
     29 C          -0.0206   -1.7501   -2.8257 C.3     1  LIG1        0.1143
     30 C          -3.4054   -1.8687    0.4881 C.ar    1  LIG1        0.1621
     31 C          -1.5122   -3.3151    0.9899 C.ar    1  LIG1       -0.0157
     32 C          -4.1549   -2.9968    0.1421 C.ar    1  LIG1       -0.0163
     33 C          -0.0232   -0.3640   -3.4727 C.3     1  LIG1        0.0783
     34 C          -2.2714   -4.4324    0.6458 C.ar    1  LIG1       -0.0581
     35 C          -3.5846   -4.2721    0.2093 C.ar    1  LIG1       -0.0581
     36 C           5.7614   -1.3202   -1.6421 C.ar    1  LIG1        0.0315
     37 C           6.0557    0.5499   -0.2941 C.ar    1  LIG1        0.0315
     38 C           6.6110   -0.3505   -1.1712 C.ar    1  LIG1       -0.0254
     39 C          -5.2812   -0.4117    0.3627 C.3     1  LIG1        0.0790
     40 H          -1.2996    1.0767   -3.7792 H       1  LIG1        0.2095
     41 H          -0.4373    0.7992    2.7166 H       1  LIG1        0.1754
     42 H           7.2543   -1.0794    6.1476 H       1  LIG1        0.0238
     43 H           8.3637    0.2782    6.1752 H       1  LIG1        0.0238
     44 H           7.4407   -0.0644    4.7046 H       1  LIG1        0.0238
     45 H           5.8612   -0.2699    8.1147 H       1  LIG1        0.0238
     46 H           5.3890    1.4283    8.2329 H       1  LIG1        0.0238
     47 H           7.0984    0.9802    8.3118 H       1  LIG1        0.0238
     48 H           6.6981    2.5001    4.8726 H       1  LIG1        0.0238
     49 H           7.7195    2.5204    6.3183 H       1  LIG1        0.0238
     50 H           6.0613    3.0806    6.4225 H       1  LIG1        0.0238
     51 H           5.2944   -1.5853    5.3854 H       1  LIG1        0.0621
     52 H           4.0407    2.5352    5.8635 H       1  LIG1        0.0621
     53 H           3.1122   -2.1337    4.4661 H       1  LIG1        0.0637
     54 H           1.8541    1.9594    4.9476 H       1  LIG1        0.0637
     55 H          -0.7342   -2.3906   -3.3569 H       1  LIG1        0.0720
     56 H           0.9587   -2.2369   -2.9041 H       1  LIG1        0.0720
     57 H          -0.4929   -3.4537    1.3391 H       1  LIG1        0.0655
     58 H          -5.1820   -2.9167   -0.1974 H       1  LIG1        0.0655
     59 H           0.5549    0.3569   -2.8880 H       1  LIG1        0.0591
     60 H           0.3921   -0.4188   -4.4834 H       1  LIG1        0.0591
     61 H          -1.8348   -5.4262    0.7113 H       1  LIG1        0.0619
     62 H          -4.1712   -5.1431   -0.0743 H       1  LIG1        0.0619
     63 H           6.1048   -2.0824   -2.3366 H       1  LIG1        0.0831
     64 H           6.6459    1.3581    0.1300 H       1  LIG1        0.0831
     65 H           7.6480   -0.2992   -1.4709 H       1  LIG1        0.0648
     66 H          -5.5046    0.6462    0.5290 H       1  LIG1        0.0660
     67 H          -5.8149   -0.9864    1.1272 H       1  LIG1        0.0660
     68 H          -5.6271   -0.6728   -0.6424 H       1  LIG1        0.0660
@<TRIPOS>BOND
     1     1     2    2
     2     1     3    2
     3     1     8    1
     4     1    20    1
     5     4    24    1
     6     4    27    1
     7     5    25    1
     8     5    29    1
     9     6    30    1
    10     6    39    1
    11     7    33    1
    12     8    23    1
    13     9    23   ar
    14     9    26   ar
    15    10    25   ar
    16    10    26   ar
    17    11    28   ar
    18    11    36   ar
    19    12    28   ar
    20    12    37   ar
    21    13    14    1
    22    13    15    1
    23    13    16    1
    24    13    17    1
    25    14    18   ar
    26    14    19   ar
    27    18    21   ar
    28    19    22   ar
    29    20    21   ar
    30    20    22   ar
    31    23    24   ar
    32    24    25   ar
    33    26    28    1
    34    27    30   ar
    35    27    31   ar
    36    29    33    1
    37    30    32   ar
    38    31    34   ar
    39    32    35   ar
    40    34    35   ar
    41    36    38   ar
    42    37    38   ar
    43     7    40    1
    44     8    41    1
    45    15    42    1
    46    15    43    1
    47    15    44    1
    48    16    45    1
    49    16    46    1
    50    16    47    1
    51    17    48    1
    52    17    49    1
    53    17    50    1
    54    18    51    1
    55    19    52    1
    56    21    53    1
    57    22    54    1
    58    29    55    1
    59    29    56    1
    60    31    57    1
    61    32    58    1
    62    33    59    1
    63    33    60    1
    64    34    61    1
    65    35    62    1
    66    36    63    1
    67    37    64    1
    68    38    65    1
    69    39    66    1
    70    39    67    1
    71    39    68    1
@<TRIPOS>MOLECULE
104865
 68 71 0 0 0
SMALL
GASTEIGER

@<TRIPOS>ATOM
      1 S           0.6365   -0.6235    4.0146 S.O2    1  LIG1        0.0736
      2 O           0.8598    0.1676    5.2061 O.2     1  LIG1       -0.1499
      3 O          -0.5324   -1.4676    3.8893 O.2     1  LIG1       -0.1499
      4 O          -1.3555   -0.7932    1.1069 O.3     1  LIG1       -0.4435
      5 O          -0.6028   -1.3387   -1.5619 O.3     1  LIG1       -0.4715
      6 O          -3.9396   -0.5296    0.4581 O.3     1  LIG1       -0.4914
      7 O          -2.3641   -2.2146   -3.5726 O.3     1  LIG1       -0.3917
      8 N           0.6932    0.4435    2.7158 N.pl3   1  LIG1       -0.1963
      9 N           2.1884    0.0425    1.0680 N.ar    1  LIG1       -0.2044
     10 N           1.6343   -0.9065   -1.0354 N.ar    1  LIG1       -0.1866
     11 N           4.2793   -0.6046   -1.8504 N.ar    1  LIG1       -0.2331
     12 N           4.8865   -0.0913    0.4019 N.ar    1  LIG1       -0.2331
     13 C           5.5963   -4.1139    3.1038 C.3     1  LIG1       -0.0127
     14 C           4.3365   -3.2654    3.3514 C.ar    1  LIG1       -0.0419
     15 C           6.2874   -4.4039    4.4520 C.3     1  LIG1       -0.0560
     16 C           6.5734   -3.3527    2.1811 C.3     1  LIG1       -0.0560
     17 C           5.3079   -5.4738    2.4280 C.3     1  LIG1       -0.0560
     18 C           4.4529   -1.9613    3.8780 C.ar    1  LIG1       -0.0562
     19 C           3.0424   -3.7450    3.0844 C.ar    1  LIG1       -0.0562
     20 C           2.0673   -1.6524    3.7882 C.ar    1  LIG1        0.1086
     21 C           3.3313   -1.1575    4.0983 C.ar    1  LIG1       -0.0348
     22 C           1.9150   -2.9516    3.3080 C.ar    1  LIG1       -0.0348
     23 C           0.9047   -0.1024    1.4263 C.ar    1  LIG1        0.1883
     24 C          -0.0727   -0.6844    0.6481 C.ar    1  LIG1        0.2307
     25 C           0.3534   -0.9920   -0.6308 C.ar    1  LIG1        0.2642
     26 C           2.5288   -0.4133   -0.1547 C.ar    1  LIG1        0.2027
     27 C          -2.0656   -1.9410    0.8027 C.ar    1  LIG1        0.1702
     28 C           3.9653   -0.3630   -0.5544 C.ar    1  LIG1        0.1978
     29 C          -0.1247   -1.5587   -2.8932 C.3     1  LIG1        0.1143
     30 C          -3.4226   -1.7997    0.4814 C.ar    1  LIG1        0.1621
     31 C          -1.4947   -3.2198    0.8566 C.ar    1  LIG1       -0.0157
     32 C          -4.1727   -2.9274    0.1299 C.ar    1  LIG1       -0.0163
     33 C          -1.2980   -1.3046   -3.8358 C.3     1  LIG1        0.0783
     34 C          -2.2538   -4.3425    0.5229 C.ar    1  LIG1       -0.0581
     35 C          -3.5875   -4.1950    0.1492 C.ar    1  LIG1       -0.0581
     36 C           5.5838   -0.5669   -2.1769 C.ar    1  LIG1        0.0315
     37 C           6.1753   -0.0760    0.0167 C.ar    1  LIG1        0.0315
     38 C           6.5854   -0.3085   -1.2733 C.ar    1  LIG1       -0.0254
     39 C          -5.2526   -0.4317    1.0034 C.3     1  LIG1        0.0790
     40 H          -2.5511   -2.1404   -2.6161 H       1  LIG1        0.2095
     41 H           1.3577    1.1888    2.9140 H       1  LIG1        0.1754
     42 H           6.6179   -3.4866    4.9517 H       1  LIG1        0.0238
     43 H           7.1733   -5.0347    4.3144 H       1  LIG1        0.0238
     44 H           5.6098   -4.9258    5.1383 H       1  LIG1        0.0238
     45 H           6.9297   -2.4192    2.6297 H       1  LIG1        0.0238
     46 H           6.0964   -3.1001    1.2269 H       1  LIG1        0.0238
     47 H           7.4604   -3.9578    1.9603 H       1  LIG1        0.0238
     48 H           4.6668   -6.1082    3.0510 H       1  LIG1        0.0238
     49 H           6.2349   -6.0323    2.2516 H       1  LIG1        0.0238
     50 H           4.8182   -5.3433    1.4557 H       1  LIG1        0.0238
     51 H           5.4301   -1.5485    4.1206 H       1  LIG1        0.0621
     52 H           2.8766   -4.7466    2.6972 H       1  LIG1        0.0621
     53 H           3.4569   -0.1533    4.4954 H       1  LIG1        0.0637
     54 H           0.9279   -3.3566    3.1018 H       1  LIG1        0.0637
     55 H           0.2096   -2.5991   -2.9702 H       1  LIG1        0.0720
     56 H           0.6856   -0.8769   -3.1732 H       1  LIG1        0.0720
     57 H          -0.4599   -3.3570    1.1492 H       1  LIG1        0.0655
     58 H          -5.2095   -2.8375   -0.1788 H       1  LIG1        0.0655
     59 H          -1.6874   -0.2898   -3.7011 H       1  LIG1        0.0591
     60 H          -0.9906   -1.4280   -4.8780 H       1  LIG1        0.0591
     61 H          -1.8033   -5.3316    0.5491 H       1  LIG1        0.0619
     62 H          -4.1743   -5.0680   -0.1266 H       1  LIG1        0.0619
     63 H           5.8055   -0.7587   -3.2229 H       1  LIG1        0.0831
     64 H           6.8921    0.1332    0.8055 H       1  LIG1        0.0831
     65 H           7.6277   -0.2888   -1.5591 H       1  LIG1        0.0648
     66 H          -5.4270    0.6151    1.2693 H       1  LIG1        0.0660
     67 H          -5.3653   -1.0313    1.9142 H       1  LIG1        0.0660
     68 H          -6.0003   -0.7165    0.2565 H       1  LIG1        0.0660
@<TRIPOS>BOND
     1     1     2    2
     2     1     3    2
     3     1     8    1
     4     1    20    1
     5     4    24    1
     6     4    27    1
     7     5    25    1
     8     5    29    1
     9     6    30    1
    10     6    39    1
    11     7    33    1
    12     8    23    1
    13     9    23   ar
    14     9    26   ar
    15    10    25   ar
    16    10    26   ar
    17    11    28   ar
    18    11    36   ar
    19    12    28   ar
    20    12    37   ar
    21    13    14    1
    22    13    15    1
    23    13    16    1
    24    13    17    1
    25    14    18   ar
    26    14    19   ar
    27    18    21   ar
    28    19    22   ar
    29    20    21   ar
    30    20    22   ar
    31    23    24   ar
    32    24    25   ar
    33    26    28    1
    34    27    30   ar
    35    27    31   ar
    36    29    33    1
    37    30    32   ar
    38    31    34   ar
    39    32    35   ar
    40    34    35   ar
    41    36    38   ar
    42    37    38   ar
    43     7    40    1
    44     8    41    1
    45    15    42    1
    46    15    43    1
    47    15    44    1
    48    16    45    1
    49    16    46    1
    50    16    47    1
    51    17    48    1
    52    17    49    1
    53    17    50    1
    54    18    51    1
    55    19    52    1
    56    21    53    1
    57    22    54    1
    58    29    55    1
    59    29    56    1
    60    31    57    1
    61    32    58    1
    62    33    59    1
    63    33    60    1
    64    34    61    1
    65    35    62    1
    66    36    63    1
    67    37    64    1
    68    38    65    1
    69    39    66    1
    70    39    67    1
    71    39    68    1
@<TRIPOS>MOLECULE
104865
 68 71 0 0 0
SMALL
GASTEIGER

@<TRIPOS>ATOM
      1 S           0.6938   -0.6006    3.9306 S.O2    1  LIG1        0.0736
      2 O           1.0291   -1.9310    3.4659 O.2     1  LIG1       -0.1499
      3 O           1.4748    0.0592    4.9551 O.2     1  LIG1       -0.1499
      4 O          -1.3136   -0.9173    1.0885 O.3     1  LIG1       -0.4435
      5 O          -0.4537   -1.7569   -1.5102 O.3     1  LIG1       -0.4715
      6 O          -3.8845   -0.6176    0.4902 O.3     1  LIG1       -0.4914
      7 O          -1.8172   -2.1649   -4.0824 O.3     1  LIG1       -0.3917
      8 N           0.6160    0.4739    2.6315 N.pl3   1  LIG1       -0.1963
      9 N           2.1757    0.0996    1.0138 N.ar    1  LIG1       -0.2044
     10 N           1.7194   -1.0769   -1.0039 N.ar    1  LIG1       -0.1866
     11 N           4.4792   -1.3258   -1.3831 N.ar    1  LIG1       -0.2331
     12 N           4.7658    0.6001    0.0033 N.ar    1  LIG1       -0.2331
     13 C          -5.0961   -0.7798    5.9661 C.3     1  LIG1       -0.0127
     14 C          -3.6373   -0.7083    5.4806 C.ar    1  LIG1       -0.0419
     15 C          -5.3345   -2.0906    6.7490 C.3     1  LIG1       -0.0560
     16 C          -6.0358   -0.7450    4.7425 C.3     1  LIG1       -0.0560
     17 C          -5.5027    0.3829    6.8977 C.3     1  LIG1       -0.0560
     18 C          -3.1038   -1.7627    4.7137 C.ar    1  LIG1       -0.0562
     19 C          -2.7923    0.3826    5.7581 C.ar    1  LIG1       -0.0562
     20 C          -0.9860   -0.6269    4.5087 C.ar    1  LIG1        0.1086
     21 C          -1.7871   -1.7352    4.2518 C.ar    1  LIG1       -0.0348
     22 C          -1.4763    0.4269    5.2787 C.ar    1  LIG1       -0.0348
     23 C           0.8952   -0.0972    1.3601 C.ar    1  LIG1        0.1883
     24 C          -0.0369   -0.7923    0.6150 C.ar    1  LIG1        0.2307
     25 C           0.4379   -1.2093   -0.6134 C.ar    1  LIG1        0.2642
     26 C           2.5616   -0.4454   -0.1592 C.ar    1  LIG1        0.2027
     27 C          -2.0352   -2.0567    0.7901 C.ar    1  LIG1        0.1702
     28 C           4.0021   -0.3802   -0.5353 C.ar    1  LIG1        0.1978
     29 C           0.1478   -2.3415   -2.6701 C.3     1  LIG1        0.1143
     30 C          -3.3942   -1.8980    0.4804 C.ar    1  LIG1        0.1621
     31 C          -1.4770   -3.3404    0.8689 C.ar    1  LIG1       -0.0157
     32 C          -4.1555   -3.0223    0.1460 C.ar    1  LIG1       -0.0163
     33 C          -0.9426   -3.0877   -3.4353 C.3     1  LIG1        0.0783
     34 C          -2.2491   -4.4568    0.5495 C.ar    1  LIG1       -0.0581
     35 C          -3.5816   -4.2962    0.1746 C.ar    1  LIG1       -0.0581
     36 C           5.7887   -1.2690   -1.6820 C.ar    1  LIG1        0.0315
     37 C           6.0667    0.6106   -0.3422 C.ar    1  LIG1        0.0315
     38 C           6.6383   -0.3107   -1.1865 C.ar    1  LIG1       -0.0254
     39 C          -5.2696   -0.4920    0.7882 C.3     1  LIG1        0.0790
     40 H          -2.6530   -2.6325   -4.2470 H       1  LIG1        0.2095
     41 H           1.2739    1.2311    2.8179 H       1  LIG1        0.1754
     42 H          -5.1929   -2.9806    6.1264 H       1  LIG1        0.0238
     43 H          -6.3585   -2.1379    7.1378 H       1  LIG1        0.0238
     44 H          -4.6490   -2.1715    7.6008 H       1  LIG1        0.0238
     45 H          -5.8804   -1.6049    4.0815 H       1  LIG1        0.0238
     46 H          -5.8755    0.1614    4.1465 H       1  LIG1        0.0238
     47 H          -7.0878   -0.7608    5.0498 H       1  LIG1        0.0238
     48 H          -4.8773    0.4141    7.7974 H       1  LIG1        0.0238
     49 H          -6.5430    0.2773    7.2290 H       1  LIG1        0.0238
     50 H          -5.4255    1.3530    6.3934 H       1  LIG1        0.0238
     51 H          -3.7106   -2.6295    4.4600 H       1  LIG1        0.0621
     52 H          -3.1345    1.2253    6.3533 H       1  LIG1        0.0621
     53 H          -1.4048   -2.5801    3.6869 H       1  LIG1        0.0637
     54 H          -0.8456    1.2805    5.5167 H       1  LIG1        0.0637
     55 H           0.9181   -3.0625   -2.3710 H       1  LIG1        0.0720
     56 H           0.5772   -1.5532   -3.2992 H       1  LIG1        0.0720
     57 H          -0.4419   -3.4800    1.1704 H       1  LIG1        0.0655
     58 H          -5.1940   -2.9302   -0.1551 H       1  LIG1        0.0655
     59 H          -0.5012   -3.7246   -4.2072 H       1  LIG1        0.0591
     60 H          -1.5384   -3.7032   -2.7530 H       1  LIG1        0.0591
     61 H          -1.8085   -5.4498    0.5873 H       1  LIG1        0.0619
     62 H          -4.1787   -5.1651   -0.0915 H       1  LIG1        0.0619
     63 H           6.1451   -2.0455   -2.3529 H       1  LIG1        0.0831
     64 H           6.6559    1.4097    0.0983 H       1  LIG1        0.0831
     65 H           7.6878   -0.2841   -1.4432 H       1  LIG1        0.0648
     66 H          -5.4578    0.5463    1.0776 H       1  LIG1        0.0660
     67 H          -5.5657   -1.1292    1.6285 H       1  LIG1        0.0660
     68 H          -5.8747   -0.7095   -0.0973 H       1  LIG1        0.0660
@<TRIPOS>BOND
     1     1     2    2
     2     1     3    2
     3     1     8    1
     4     1    20    1
     5     4    24    1
     6     4    27    1
     7     5    25    1
     8     5    29    1
     9     6    30    1
    10     6    39    1
    11     7    33    1
    12     8    23    1
    13     9    23   ar
    14     9    26   ar
    15    10    25   ar
    16    10    26   ar
    17    11    28   ar
    18    11    36   ar
    19    12    28   ar
    20    12    37   ar
    21    13    14    1
    22    13    15    1
    23    13    16    1
    24    13    17    1
    25    14    18   ar
    26    14    19   ar
    27    18    21   ar
    28    19    22   ar
    29    20    21   ar
    30    20    22   ar
    31    23    24   ar
    32    24    25   ar
    33    26    28    1
    34    27    30   ar
    35    27    31   ar
    36    29    33    1
    37    30    32   ar
    38    31    34   ar
    39    32    35   ar
    40    34    35   ar
    41    36    38   ar
    42    37    38   ar
    43     7    40    1
    44     8    41    1
    45    15    42    1
    46    15    43    1
    47    15    44    1
    48    16    45    1
    49    16    46    1
    50    16    47    1
    51    17    48    1
    52    17    49    1
    53    17    50    1
    54    18    51    1
    55    19    52    1
    56    21    53    1
    57    22    54    1
    58    29    55    1
    59    29    56    1
    60    31    57    1
    61    32    58    1
    62    33    59    1
    63    33    60    1
    64    34    61    1
    65    35    62    1
    66    36    63    1
    67    37    64    1
    68    38    65    1
    69    39    66    1
    70    39    67    1
    71    39    68    1
@<TRIPOS>MOLECULE
104865
 68 71 0 0 0
SMALL
GASTEIGER

@<TRIPOS>ATOM
      1 S           0.7306   -0.5312    3.9849 S.O2    1  LIG1        0.0736
      2 O          -0.2455   -0.0679    4.9509 O.2     1  LIG1       -0.1499
      3 O           0.7662   -1.9198    3.5791 O.2     1  LIG1       -0.1499
      4 O          -1.3204   -0.8564    1.0645 O.3     1  LIG1       -0.4435
      5 O          -0.4034   -1.7732   -1.5097 O.3     1  LIG1       -0.4715
      6 O          -3.8531   -0.5620    0.3480 O.3     1  LIG1       -0.4914
      7 O           0.3526   -3.7363   -4.5013 O.3     1  LIG1       -0.3917
      8 N           0.5327    0.4556    2.6333 N.pl3   1  LIG1       -0.1963
      9 N           2.2115   -0.0254    1.1085 N.ar    1  LIG1       -0.2044
     10 N           1.7585   -1.1590   -0.9399 N.ar    1  LIG1       -0.1866
     11 N           4.5157   -1.4483   -1.2888 N.ar    1  LIG1       -0.2331
     12 N           4.7997    0.5103    0.0487 N.ar    1  LIG1       -0.2331
     13 C           6.2229    0.8973    6.3187 C.3     1  LIG1       -0.0127
     14 C           4.8598    0.5383    5.6992 C.ar    1  LIG1       -0.0419
     15 C           6.1492    0.7757    7.8565 C.3     1  LIG1       -0.0560
     16 C           6.5943    2.3474    5.9417 C.3     1  LIG1       -0.0560
     17 C           7.3817   -0.0102    5.8468 C.3     1  LIG1       -0.0560
     18 C           3.7068    1.2679    6.0567 C.ar    1  LIG1       -0.0562
     19 C           4.7027   -0.5072    4.7713 C.ar    1  LIG1       -0.0562
     20 C           2.3322   -0.0716    4.5933 C.ar    1  LIG1        0.1086
     21 C           2.4528    0.9658    5.5168 C.ar    1  LIG1       -0.0348
     22 C           3.4517   -0.8159    4.2264 C.ar    1  LIG1       -0.0348
     23 C           0.9067   -0.1337    1.3970 C.ar    1  LIG1        0.1883
     24 C          -0.0265   -0.7937    0.6204 C.ar    1  LIG1        0.2307
     25 C           0.4702   -1.2721   -0.5730 C.ar    1  LIG1        0.2642
     26 C           2.6019   -0.5598   -0.0692 C.ar    1  LIG1        0.2027
     27 C          -2.0474   -2.0043    0.8191 C.ar    1  LIG1        0.1702
     28 C           4.0418   -0.4953   -0.4480 C.ar    1  LIG1        0.1978
     29 C           0.1093   -2.8836   -2.2504 C.3     1  LIG1        0.1143
     30 C          -3.3839   -1.8488    0.4191 C.ar    1  LIG1        0.1621
     31 C          -1.5071   -3.2845    0.9996 C.ar    1  LIG1       -0.0157
     32 C          -4.1318   -2.9840    0.0923 C.ar    1  LIG1       -0.0163
     33 C          -0.0450   -2.6026   -3.7386 C.3     1  LIG1        0.0783
     34 C          -2.2638   -4.4094    0.6743 C.ar    1  LIG1       -0.0581
     35 C          -3.5674   -4.2583    0.2066 C.ar    1  LIG1       -0.0581
     36 C           5.8114   -1.3658   -1.6362 C.ar    1  LIG1        0.0315
     37 C           6.0864    0.5471   -0.3438 C.ar    1  LIG1        0.0315
     38 C           6.6520   -0.3749   -1.1922 C.ar    1  LIG1       -0.0254
     39 C          -5.2670   -0.4052    0.3576 C.3     1  LIG1        0.0790
     40 H           0.2589   -3.4912   -5.4377 H       1  LIG1        0.2095
     41 H          -0.4085    0.8435    2.6505 H       1  LIG1        0.1754
     42 H           5.4262    1.4725    8.2944 H       1  LIG1        0.0238
     43 H           7.1205    0.9926    8.3169 H       1  LIG1        0.0238
     44 H           5.8558   -0.2366    8.1589 H       1  LIG1        0.0238
     45 H           5.8772    3.0745    6.3382 H       1  LIG1        0.0238
     46 H           6.6258    2.4761    4.8532 H       1  LIG1        0.0238
     47 H           7.5796    2.6192    6.3384 H       1  LIG1        0.0238
     48 H           7.2038   -1.0598    6.1087 H       1  LIG1        0.0238
     49 H           8.3292    0.2825    6.3152 H       1  LIG1        0.0238
     50 H           7.5273    0.0516    4.7620 H       1  LIG1        0.0238
     51 H           3.7702    2.0850    6.7722 H       1  LIG1        0.0621
     52 H           5.5454   -1.1124    4.4496 H       1  LIG1        0.0621
     53 H           1.5819    1.5378    5.8286 H       1  LIG1        0.0637
     54 H           3.3629   -1.6373    3.5185 H       1  LIG1        0.0637
     55 H          -0.4900   -3.7632   -1.9872 H       1  LIG1        0.0720
     56 H           1.1465   -3.1567   -2.0188 H       1  LIG1        0.0720
     57 H          -0.4955   -3.4171    1.3743 H       1  LIG1        0.0655
     58 H          -5.1519   -2.9083   -0.2687 H       1  LIG1        0.0655
     59 H          -1.0882   -2.3669   -3.9754 H       1  LIG1        0.0591
     60 H           0.5655   -1.7420   -4.0307 H       1  LIG1        0.0591
     61 H          -1.8327   -5.4020    0.7774 H       1  LIG1        0.0619
     62 H          -4.1510   -5.1351   -0.0631 H       1  LIG1        0.0619
     63 H           6.1622   -2.1453   -2.3060 H       1  LIG1        0.0831
     64 H           6.6692    1.3718    0.0575 H       1  LIG1        0.0831
     65 H           7.6891   -0.3239   -1.4913 H       1  LIG1        0.0648
     66 H          -5.4851    0.6516    0.5381 H       1  LIG1        0.0660
     67 H          -5.7345   -0.9815    1.1639 H       1  LIG1        0.0660
     68 H          -5.6904   -0.6734   -0.6152 H       1  LIG1        0.0660
@<TRIPOS>BOND
     1     1     2    2
     2     1     3    2
     3     1     8    1
     4     1    20    1
     5     4    24    1
     6     4    27    1
     7     5    25    1
     8     5    29    1
     9     6    30    1
    10     6    39    1
    11     7    33    1
    12     8    23    1
    13     9    23   ar
    14     9    26   ar
    15    10    25   ar
    16    10    26   ar
    17    11    28   ar
    18    11    36   ar
    19    12    28   ar
    20    12    37   ar
    21    13    14    1
    22    13    15    1
    23    13    16    1
    24    13    17    1
    25    14    18   ar
    26    14    19   ar
    27    18    21   ar
    28    19    22   ar
    29    20    21   ar
    30    20    22   ar
    31    23    24   ar
    32    24    25   ar
    33    26    28    1
    34    27    30   ar
    35    27    31   ar
    36    29    33    1
    37    30    32   ar
    38    31    34   ar
    39    32    35   ar
    40    34    35   ar
    41    36    38   ar
    42    37    38   ar
    43     7    40    1
    44     8    41    1
    45    15    42    1
    46    15    43    1
    47    15    44    1
    48    16    45    1
    49    16    46    1
    50    16    47    1
    51    17    48    1
    52    17    49    1
    53    17    50    1
    54    18    51    1
    55    19    52    1
    56    21    53    1
    57    22    54    1
    58    29    55    1
    59    29    56    1
    60    31    57    1
    61    32    58    1
    62    33    59    1
    63    33    60    1
    64    34    61    1
    65    35    62    1
    66    36    63    1
    67    37    64    1
    68    38    65    1
    69    39    66    1
    70    39    67    1
    71    39    68    1
@<TRIPOS>MOLECULE
104865
 68 71 0 0 0
SMALL
GASTEIGER

@<TRIPOS>ATOM
      1 S           0.7033   -0.5675    3.9660 S.O2    1  LIG1        0.0736
      2 O           0.2847    0.2053    5.1186 O.2     1  LIG1       -0.1499
      3 O           0.0919   -1.8436    3.6612 O.2     1  LIG1       -0.1499
      4 O          -1.3481   -0.9147    1.1408 O.3     1  LIG1       -0.4435
      5 O          -0.5121   -1.8748   -1.4374 O.3     1  LIG1       -0.4715
      6 O          -3.8903   -0.6233    0.3359 O.3     1  LIG1       -0.4914
      7 O          -1.3556   -2.5497   -4.2208 O.3     1  LIG1       -0.3917
      8 N           0.6184    0.4615    2.6289 N.pl3   1  LIG1       -0.1963
      9 N           2.1590    0.0258    1.0062 N.ar    1  LIG1       -0.2044
     10 N           1.6534   -1.1540   -0.9977 N.ar    1  LIG1       -0.1866
     11 N           4.2491   -0.6261   -1.9014 N.ar    1  LIG1       -0.2331
     12 N           4.8702   -0.1605    0.3571 N.ar    1  LIG1       -0.2331
     13 C           6.7156   -1.5623    4.7168 C.3     1  LIG1       -0.0127
     14 C           5.2098   -1.3261    4.5005 C.ar    1  LIG1       -0.0419
     15 C           6.9929   -1.7531    6.2230 C.3     1  LIG1       -0.0560
     16 C           7.5195   -0.3478    4.2041 C.3     1  LIG1       -0.0560
     17 C           7.2623   -2.8090    3.9849 C.3     1  LIG1       -0.0560
     18 C           4.5859   -0.1896    5.0564 C.ar    1  LIG1       -0.0562
     19 C           4.4019   -2.2193    3.7741 C.ar    1  LIG1       -0.0562
     20 C           2.4524   -0.8444    4.1457 C.ar    1  LIG1        0.1086
     21 C           3.2199    0.0522    4.8866 C.ar    1  LIG1       -0.0348
     22 C           3.0332   -1.9890    3.6026 C.ar    1  LIG1       -0.0348
     23 C           0.8826   -0.1487    1.3737 C.ar    1  LIG1        0.1883
     24 C          -0.0712   -0.8412    0.6548 C.ar    1  LIG1        0.2307
     25 C           0.3854   -1.3082   -0.5621 C.ar    1  LIG1        0.2642
     26 C           2.5142   -0.5087   -0.1813 C.ar    1  LIG1        0.2027
     27 C          -2.0839   -2.0556    0.8999 C.ar    1  LIG1        0.1702
     28 C           3.9438   -0.4163   -0.5979 C.ar    1  LIG1        0.1978
     29 C           0.0336   -2.9051   -2.2713 C.3     1  LIG1        0.1143
     30 C          -3.4121   -1.9006    0.4841 C.ar    1  LIG1        0.1621
     31 C          -1.5651   -3.3375    1.1200 C.ar    1  LIG1       -0.0157
     32 C          -4.1763   -3.0305    0.1783 C.ar    1  LIG1       -0.0163
     33 C          -0.0172   -2.4637   -3.7301 C.3     1  LIG1        0.0783
     34 C          -2.3391   -4.4617    0.8314 C.ar    1  LIG1       -0.0581
     35 C          -3.6369   -4.3080    0.3462 C.ar    1  LIG1       -0.0581
     36 C           5.5507   -0.5647   -2.2374 C.ar    1  LIG1        0.0315
     37 C           6.1559   -0.1242   -0.0372 C.ar    1  LIG1        0.0315
     38 C           6.5577   -0.3200   -1.3358 C.ar    1  LIG1       -0.0254
     39 C          -5.1994   -0.4445    0.8699 C.3     1  LIG1        0.0790
     40 H          -1.3763   -2.0895   -5.0763 H       1  LIG1        0.2095
     41 H           1.2638    1.2382    2.7610 H       1  LIG1        0.1754
     42 H           6.7279   -0.8648    6.8072 H       1  LIG1        0.0238
     43 H           8.0546   -1.9546    6.4070 H       1  LIG1        0.0238
     44 H           6.4184   -2.5952    6.6268 H       1  LIG1        0.0238
     45 H           7.2874    0.5688    4.7569 H       1  LIG1        0.0238
     46 H           7.3103   -0.1556    3.1461 H       1  LIG1        0.0238
     47 H           8.5981   -0.5161    4.3052 H       1  LIG1        0.0238
     48 H           6.7819   -3.7287    4.3387 H       1  LIG1        0.0238
     49 H           8.3395   -2.9260    4.1537 H       1  LIG1        0.0238
     50 H           7.1103   -2.7385    2.9014 H       1  LIG1        0.0238
     51 H           5.1609    0.5239    5.6436 H       1  LIG1        0.0621
     52 H           4.8129   -3.1200    3.3259 H       1  LIG1        0.0621
     53 H           2.7695    0.9304    5.3435 H       1  LIG1        0.0637
     54 H           2.4362   -2.7055    3.0431 H       1  LIG1        0.0637
     55 H          -0.6000   -3.7880   -2.1290 H       1  LIG1        0.0720
     56 H           1.0530   -3.1952   -1.9915 H       1  LIG1        0.0720
     57 H          -0.5610   -3.4688    1.5116 H       1  LIG1        0.0655
     58 H          -5.1844   -2.9328   -0.2112 H       1  LIG1        0.0655
     59 H           0.3239   -1.4301   -3.8421 H       1  LIG1        0.0591
     60 H           0.5994   -3.1239   -4.3471 H       1  LIG1        0.0591
     61 H          -1.9272   -5.4564    0.9797 H       1  LIG1        0.0619
     62 H          -4.2321   -5.1835    0.1007 H       1  LIG1        0.0619
     63 H           5.7659   -0.7264   -3.2897 H       1  LIG1        0.0831
     64 H           6.8770    0.0732    0.7498 H       1  LIG1        0.0831
     65 H           7.5974   -0.2830   -1.6287 H       1  LIG1        0.0648
     66 H          -5.3448    0.6254    1.0487 H       1  LIG1        0.0660
     67 H          -5.3281   -0.9627    1.8275 H       1  LIG1        0.0660
     68 H          -5.9557   -0.7696    0.1490 H       1  LIG1        0.0660
@<TRIPOS>BOND
     1     1     2    2
     2     1     3    2
     3     1     8    1
     4     1    20    1
     5     4    24    1
     6     4    27    1
     7     5    25    1
     8     5    29    1
     9     6    30    1
    10     6    39    1
    11     7    33    1
    12     8    23    1
    13     9    23   ar
    14     9    26   ar
    15    10    25   ar
    16    10    26   ar
    17    11    28   ar
    18    11    36   ar
    19    12    28   ar
    20    12    37   ar
    21    13    14    1
    22    13    15    1
    23    13    16    1
    24    13    17    1
    25    14    18   ar
    26    14    19   ar
    27    18    21   ar
    28    19    22   ar
    29    20    21   ar
    30    20    22   ar
    31    23    24   ar
    32    24    25   ar
    33    26    28    1
    34    27    30   ar
    35    27    31   ar
    36    29    33    1
    37    30    32   ar
    38    31    34   ar
    39    32    35   ar
    40    34    35   ar
    41    36    38   ar
    42    37    38   ar
    43     7    40    1
    44     8    41    1
    45    15    42    1
    46    15    43    1
    47    15    44    1
    48    16    45    1
    49    16    46    1
    50    16    47    1
    51    17    48    1
    52    17    49    1
    53    17    50    1
    54    18    51    1
    55    19    52    1
    56    21    53    1
    57    22    54    1
    58    29    55    1
    59    29    56    1
    60    31    57    1
    61    32    58    1
    62    33    59    1
    63    33    60    1
    64    34    61    1
    65    35    62    1
    66    36    63    1
    67    37    64    1
    68    38    65    1
    69    39    66    1
    70    39    67    1
    71    39    68    1
@<TRIPOS>MOLECULE
104865
 68 71 0 0 0
SMALL
GASTEIGER

@<TRIPOS>ATOM
      1 S           0.7509   -0.6078    3.9923 S.O2    1  LIG1        0.0736
      2 O          -0.2215   -0.1906    4.9839 O.2     1  LIG1       -0.1499
      3 O           0.8135   -1.9867    3.5601 O.2     1  LIG1       -0.1499
      4 O          -1.3651   -0.8210    1.0427 O.3     1  LIG1       -0.4435
      5 O          -0.4547   -1.7104   -1.5268 O.3     1  LIG1       -0.4715
      6 O          -3.9253   -0.5982    0.3382 O.3     1  LIG1       -0.4914
      7 O           0.3878   -3.6504   -4.5120 O.3     1  LIG1       -0.3917
      8 N           0.5008    0.3989    2.6688 N.pl3   1  LIG1       -0.1963
      9 N           2.1780   -0.0616    1.1355 N.ar    1  LIG1       -0.2044
     10 N           1.7155   -1.1082   -0.9572 N.ar    1  LIG1       -0.1866
     11 N           4.3447   -0.5905   -1.7372 N.ar    1  LIG1       -0.2331
     12 N           4.9159   -0.3023    0.5639 N.ar    1  LIG1       -0.2331
     13 C           6.2293    0.9104    6.2969 C.3     1  LIG1       -0.0127
     14 C           4.8718    0.5389    5.6728 C.ar    1  LIG1       -0.0419
     15 C           6.1527    0.7805    7.8345 C.3     1  LIG1       -0.0560
     16 C           6.5851    2.3659    5.9278 C.3     1  LIG1       -0.0560
     17 C           7.3983    0.0162    5.8254 C.3     1  LIG1       -0.0560
     18 C           3.7055    1.2352    6.0528 C.ar    1  LIG1       -0.0562
     19 C           4.7316   -0.4878    4.7217 C.ar    1  LIG1       -0.0562
     20 C           2.3485   -0.1149    4.5832 C.ar    1  LIG1        0.1086
     21 C           2.4535    0.9105    5.5221 C.ar    1  LIG1       -0.0348
     22 C           3.4826   -0.8188    4.1849 C.ar    1  LIG1       -0.0348
     23 C           0.8719   -0.1530    1.4146 C.ar    1  LIG1        0.1883
     24 C          -0.0668   -0.7722    0.6151 C.ar    1  LIG1        0.2307
     25 C           0.4265   -1.2245   -0.5891 C.ar    1  LIG1        0.2642
     26 C           2.5649   -0.5500   -0.0636 C.ar    1  LIG1        0.2027
     27 C          -2.0755   -1.9879    0.8508 C.ar    1  LIG1        0.1702
     28 C           4.0096   -0.4723   -0.4289 C.ar    1  LIG1        0.1978
     29 C           0.0455   -2.8289   -2.2630 C.3     1  LIG1        0.1143
     30 C          -3.4215   -1.8665    0.4801 C.ar    1  LIG1        0.1621
     31 C          -1.5229   -3.2551    1.0735 C.ar    1  LIG1       -0.0157
     32 C          -4.1728   -3.0158    0.2190 C.ar    1  LIG1       -0.0163
     33 C           0.0128   -2.5079   -3.7506 C.3     1  LIG1        0.0783
     34 C          -2.2841   -4.3985    0.8280 C.ar    1  LIG1       -0.0581
     35 C          -3.6008   -4.2789    0.3860 C.ar    1  LIG1       -0.0581
     36 C           5.6538   -0.5257   -2.0387 C.ar    1  LIG1        0.0315
     37 C           6.2104   -0.2479    0.2009 C.ar    1  LIG1        0.0315
     38 C           6.6409   -0.3547   -1.0994 C.ar    1  LIG1       -0.0254
     39 C          -5.2455   -0.4428    0.8524 C.3     1  LIG1        0.0790
     40 H           0.3611   -3.3842   -5.4470 H       1  LIG1        0.2095
     41 H          -0.4501    0.7635    2.7085 H       1  LIG1        0.1754
     42 H           5.4273    1.4731    8.2749 H       1  LIG1        0.0238
     43 H           7.1221    0.9975    8.2984 H       1  LIG1        0.0238
     44 H           5.8610   -0.2342    8.1306 H       1  LIG1        0.0238
     45 H           5.8546    3.0821    6.3198 H       1  LIG1        0.0238
     46 H           6.6249    2.4985    4.8401 H       1  LIG1        0.0238
     47 H           7.5631    2.6488    6.3345 H       1  LIG1        0.0238
     48 H           7.2254   -1.0373    6.0750 H       1  LIG1        0.0238
     49 H           8.3397    0.3110    6.3046 H       1  LIG1        0.0238
     50 H           7.5529    0.0901    4.7426 H       1  LIG1        0.0238
     51 H           3.7562    2.0418    6.7816 H       1  LIG1        0.0621
     52 H           5.5861   -1.0625    4.3750 H       1  LIG1        0.0621
     53 H           1.5722    1.4544    5.8537 H       1  LIG1        0.0637
     54 H           3.4095   -1.6235    3.4566 H       1  LIG1        0.0637
     55 H          -0.6207   -3.6772   -2.0644 H       1  LIG1        0.0720
     56 H           1.0448   -3.1686   -1.9615 H       1  LIG1        0.0720
     57 H          -0.5026   -3.3677    1.4313 H       1  LIG1        0.0655
     58 H          -5.1974   -2.9474   -0.1321 H       1  LIG1        0.0655
     59 H          -0.9947   -2.2000   -4.0509 H       1  LIG1        0.0591
     60 H           0.6957   -1.6837   -3.9808 H       1  LIG1        0.0591
     61 H          -1.8464   -5.3829    0.9759 H       1  LIG1        0.0619
     62 H          -4.1856   -5.1712    0.1762 H       1  LIG1        0.0619
     63 H           5.8909   -0.6189   -3.0947 H       1  LIG1        0.0831
     64 H           6.9146   -0.1118    1.0167 H       1  LIG1        0.0831
     65 H           7.6872   -0.3076   -1.3664 H       1  LIG1        0.0648
     66 H          -5.4108    0.6239    1.0316 H       1  LIG1        0.0660
     67 H          -5.3788   -0.9651    1.8071 H       1  LIG1        0.0660
     68 H          -5.9850   -0.7787    0.1192 H       1  LIG1        0.0660
@<TRIPOS>BOND
     1     1     2    2
     2     1     3    2
     3     1     8    1
     4     1    20    1
     5     4    24    1
     6     4    27    1
     7     5    25    1
     8     5    29    1
     9     6    30    1
    10     6    39    1
    11     7    33    1
    12     8    23    1
    13     9    23   ar
    14     9    26   ar
    15    10    25   ar
    16    10    26   ar
    17    11    28   ar
    18    11    36   ar
    19    12    28   ar
    20    12    37   ar
    21    13    14    1
    22    13    15    1
    23    13    16    1
    24    13    17    1
    25    14    18   ar
    26    14    19   ar
    27    18    21   ar
    28    19    22   ar
    29    20    21   ar
    30    20    22   ar
    31    23    24   ar
    32    24    25   ar
    33    26    28    1
    34    27    30   ar
    35    27    31   ar
    36    29    33    1
    37    30    32   ar
    38    31    34   ar
    39    32    35   ar
    40    34    35   ar
    41    36    38   ar
    42    37    38   ar
    43     7    40    1
    44     8    41    1
    45    15    42    1
    46    15    43    1
    47    15    44    1
    48    16    45    1
    49    16    46    1
    50    16    47    1
    51    17    48    1
    52    17    49    1
    53    17    50    1
    54    18    51    1
    55    19    52    1
    56    21    53    1
    57    22    54    1
    58    29    55    1
    59    29    56    1
    60    31    57    1
    61    32    58    1
    62    33    59    1
    63    33    60    1
    64    34    61    1
    65    35    62    1
    66    36    63    1
    67    37    64    1
    68    38    65    1
    69    39    66    1
    70    39    67    1
    71    39    68    1
@<TRIPOS>MOLECULE
104865
 68 71 0 0 0
SMALL
GASTEIGER

@<TRIPOS>ATOM
      1 S           0.7555   -0.6102    3.9928 S.O2    1  LIG1        0.0736
      2 O          -0.1802   -0.1840    5.0140 O.2     1  LIG1       -0.1499
      3 O           0.7661   -1.9834    3.5318 O.2     1  LIG1       -0.1499
      4 O          -1.3436   -0.7640    1.0227 O.3     1  LIG1       -0.4435
      5 O          -0.4265   -1.6244   -1.5456 O.3     1  LIG1       -0.4715
      6 O          -3.8117   -0.4771    0.1319 O.3     1  LIG1       -0.4914
      7 O          -0.3291   -3.3162   -4.7725 O.3     1  LIG1       -0.3917
      8 N           0.5046    0.4161    2.6866 N.pl3   1  LIG1       -0.1963
      9 N           2.1977    0.0045    1.1572 N.ar    1  LIG1       -0.2044
     10 N           1.7417   -0.9632   -0.9728 N.ar    1  LIG1       -0.1866
     11 N           4.3705   -0.5203   -1.7238 N.ar    1  LIG1       -0.2331
     12 N           4.9432   -0.2028    0.5719 N.ar    1  LIG1       -0.2331
     13 C           6.2384    0.8691    6.2972 C.3     1  LIG1       -0.0127
     14 C           4.8854    0.4821    5.6731 C.ar    1  LIG1       -0.0419
     15 C           7.2139   -0.3188    6.4597 C.3     1  LIG1       -0.0560
     16 C           6.0180    1.4656    7.7055 C.3     1  LIG1       -0.0560
     17 C           6.9338    1.9183    5.4048 C.3     1  LIG1       -0.0560
     18 C           3.8687    1.4502    5.5337 C.ar    1  LIG1       -0.0562
     19 C           4.6044   -0.8213    5.2245 C.ar    1  LIG1       -0.0562
     20 C           2.3704   -0.1772    4.5747 C.ar    1  LIG1        0.1086
     21 C           2.6187    1.1264    4.9976 C.ar    1  LIG1       -0.0348
     22 C           3.3588   -1.1530    4.6794 C.ar    1  LIG1       -0.0348
     23 C           0.8898   -0.1031    1.4237 C.ar    1  LIG1        0.1883
     24 C          -0.0440   -0.6964    0.5979 C.ar    1  LIG1        0.2307
     25 C           0.4485   -1.0858   -0.6292 C.ar    1  LIG1        0.2642
     26 C           2.5896   -0.4424   -0.0557 C.ar    1  LIG1        0.2027
     27 C          -2.0586   -1.9155    0.7604 C.ar    1  LIG1        0.1702
     28 C           4.0354   -0.3754   -0.4174 C.ar    1  LIG1        0.1978
     29 C           0.1371   -1.9697   -2.8103 C.3     1  LIG1        0.1143
     30 C          -3.3720   -1.7668    0.2859 C.ar    1  LIG1        0.1621
     31 C          -1.5283   -3.1886    1.0048 C.ar    1  LIG1       -0.0157
     32 C          -4.1200   -2.9113   -0.0041 C.ar    1  LIG1       -0.0163
     33 C          -0.7798   -3.0006   -3.4610 C.3     1  LIG1        0.0783
     34 C          -2.2839   -4.3215    0.7091 C.ar    1  LIG1       -0.0581
     35 C          -3.5730   -4.1828    0.1984 C.ar    1  LIG1       -0.0581
     36 C           5.6801   -0.4879   -2.0260 C.ar    1  LIG1        0.0315
     37 C           6.2392   -0.1842    0.2093 C.ar    1  LIG1        0.0315
     38 C           6.6696   -0.3235   -1.0883 C.ar    1  LIG1       -0.0254
     39 C          -5.1675   -0.2933   -0.2505 C.3     1  LIG1        0.0790
     40 H          -0.9188   -4.0103   -5.1135 H       1  LIG1        0.2095
     41 H          -0.4505    0.7695    2.7275 H       1  LIG1        0.1754
     42 H           6.7912   -1.1018    7.1004 H       1  LIG1        0.0238
     43 H           8.1554    0.0028    6.9212 H       1  LIG1        0.0238
     44 H           7.4689   -0.7686    5.4931 H       1  LIG1        0.0238
     45 H           5.4861    0.7594    8.3542 H       1  LIG1        0.0238
     46 H           5.4344    2.3921    7.6788 H       1  LIG1        0.0238
     47 H           6.9733    1.7058    8.1872 H       1  LIG1        0.0238
     48 H           7.0862    1.5337    4.3893 H       1  LIG1        0.0238
     49 H           7.9154    2.1923    5.8087 H       1  LIG1        0.0238
     50 H           6.3501    2.8418    5.3224 H       1  LIG1        0.0238
     51 H           4.0361    2.4769    5.8529 H       1  LIG1        0.0621
     52 H           5.3418   -1.6165    5.2947 H       1  LIG1        0.0621
     53 H           1.8480    1.8898    4.9251 H       1  LIG1        0.0637
     54 H           3.1704   -2.1736    4.3566 H       1  LIG1        0.0637
     55 H           1.1384   -2.4102   -2.7319 H       1  LIG1        0.0720
     56 H           0.2027   -1.0726   -3.4372 H       1  LIG1        0.0720
     57 H          -0.5320   -3.3086    1.4224 H       1  LIG1        0.0655
     58 H          -5.1318   -2.8504   -0.3904 H       1  LIG1        0.0655
     59 H          -0.7926   -3.9181   -2.8618 H       1  LIG1        0.0591
     60 H          -1.8081   -2.6281   -3.5151 H       1  LIG1        0.0591
     61 H          -1.8679   -5.3110    0.8821 H       1  LIG1        0.0619
     62 H          -4.1613   -5.0680   -0.0321 H       1  LIG1        0.0619
     63 H           5.9149   -0.6048   -3.0802 H       1  LIG1        0.0831
     64 H           6.9452   -0.0515    1.0241 H       1  LIG1        0.0831
     65 H           7.7166   -0.3062   -1.3545 H       1  LIG1        0.0648
     66 H          -5.3692    0.7822   -0.2573 H       1  LIG1        0.0660
     67 H          -5.8513   -0.7543    0.4701 H       1  LIG1        0.0660
     68 H          -5.3429   -0.6720   -1.2625 H       1  LIG1        0.0660
@<TRIPOS>BOND
     1     1     2    2
     2     1     3    2
     3     1     8    1
     4     1    20    1
     5     4    24    1
     6     4    27    1
     7     5    25    1
     8     5    29    1
     9     6    30    1
    10     6    39    1
    11     7    33    1
    12     8    23    1
    13     9    23   ar
    14     9    26   ar
    15    10    25   ar
    16    10    26   ar
    17    11    28   ar
    18    11    36   ar
    19    12    28   ar
    20    12    37   ar
    21    13    14    1
    22    13    15    1
    23    13    16    1
    24    13    17    1
    25    14    18   ar
    26    14    19   ar
    27    18    21   ar
    28    19    22   ar
    29    20    21   ar
    30    20    22   ar
    31    23    24   ar
    32    24    25   ar
    33    26    28    1
    34    27    30   ar
    35    27    31   ar
    36    29    33    1
    37    30    32   ar
    38    31    34   ar
    39    32    35   ar
    40    34    35   ar
    41    36    38   ar
    42    37    38   ar
    43     7    40    1
    44     8    41    1
    45    15    42    1
    46    15    43    1
    47    15    44    1
    48    16    45    1
    49    16    46    1
    50    16    47    1
    51    17    48    1
    52    17    49    1
    53    17    50    1
    54    18    51    1
    55    19    52    1
    56    21    53    1
    57    22    54    1
    58    29    55    1
    59    29    56    1
    60    31    57    1
    61    32    58    1
    62    33    59    1
    63    33    60    1
    64    34    61    1
    65    35    62    1
    66    36    63    1
    67    37    64    1
    68    38    65    1
    69    39    66    1
    70    39    67    1
    71    39    68    1
@<TRIPOS>MOLECULE
104865
 68 71 0 0 0
SMALL
GASTEIGER

@<TRIPOS>ATOM
      1 S           0.6794   -0.6500    3.9098 S.O2    1  LIG1        0.0736
      2 O           0.9925   -1.9751    3.4149 O.2     1  LIG1       -0.1499
      3 O           1.4703   -0.0270    4.9506 O.2     1  LIG1       -0.1499
      4 O          -1.3180   -0.8872    1.0559 O.3     1  LIG1       -0.4435
      5 O          -0.4568   -1.7019   -1.5466 O.3     1  LIG1       -0.4715
      6 O          -3.8835   -0.6069    0.4284 O.3     1  LIG1       -0.4914
      7 O          -0.4168   -3.7924   -4.5356 O.3     1  LIG1       -0.3917
      8 N           0.6213    0.4543    2.6331 N.pl3   1  LIG1       -0.1963
      9 N           2.1788    0.1010    1.0098 N.ar    1  LIG1       -0.2044
     10 N           1.7192   -1.0422   -1.0264 N.ar    1  LIG1       -0.1866
     11 N           4.4788   -1.2656   -1.4288 N.ar    1  LIG1       -0.2331
     12 N           4.7738    0.5977    0.0377 N.ar    1  LIG1       -0.2331
     13 C          -5.1020   -0.7727    5.9712 C.3     1  LIG1       -0.0127
     14 C          -3.6481   -0.7134    5.4690 C.ar    1  LIG1       -0.0419
     15 C          -5.3383   -2.0708    6.7760 C.3     1  LIG1       -0.0560
     16 C          -6.0538   -0.7509    4.7571 C.3     1  LIG1       -0.0560
     17 C          -5.4932    0.4044    6.8918 C.3     1  LIG1       -0.0560
     18 C          -3.1191   -1.7886    4.7278 C.ar    1  LIG1       -0.0562
     19 C          -2.8031    0.3865    5.7077 C.ar    1  LIG1       -0.0562
     20 C          -1.0011   -0.6607    4.4845 C.ar    1  LIG1        0.1086
     21 C          -1.8046   -1.7745    4.2583 C.ar    1  LIG1       -0.0348
     22 C          -1.4892    0.4161    5.2225 C.ar    1  LIG1       -0.0348
     23 C           0.8979   -0.0951    1.3519 C.ar    1  LIG1        0.1883
     24 C          -0.0367   -0.7721    0.5941 C.ar    1  LIG1        0.2307
     25 C           0.4387   -1.1812   -0.6363 C.ar    1  LIG1        0.2642
     26 C           2.5639   -0.4264   -0.1716 C.ar    1  LIG1        0.2027
     27 C          -2.0329   -2.0347    0.7749 C.ar    1  LIG1        0.1702
     28 C           4.0051   -0.3538   -0.5445 C.ar    1  LIG1        0.1978
     29 C           0.1507   -2.3885   -2.6412 C.3     1  LIG1        0.1143
     30 C          -3.3921   -1.8867    0.4605 C.ar    1  LIG1        0.1621
     31 C          -1.4699   -3.3142    0.8774 C.ar    1  LIG1       -0.0157
     32 C          -4.1526   -3.0200    0.1569 C.ar    1  LIG1       -0.0163
     33 C          -0.9565   -3.0803   -3.4294 C.3     1  LIG1        0.0783
     34 C          -2.2407   -4.4395    0.5876 C.ar    1  LIG1       -0.0581
     35 C          -3.5757   -4.2915    0.2162 C.ar    1  LIG1       -0.0581
     36 C           5.7905   -1.2077   -1.7187 C.ar    1  LIG1        0.0315
     37 C           6.0767    0.6112   -0.2992 C.ar    1  LIG1        0.0315
     38 C           6.6455   -0.2791   -1.1780 C.ar    1  LIG1       -0.0254
     39 C          -5.2636   -0.4729    0.7475 C.3     1  LIG1        0.0790
     40 H          -1.1670   -4.2008   -5.0004 H       1  LIG1        0.2095
     41 H           1.2925    1.1949    2.8384 H       1  LIG1        0.1754
     42 H          -5.2138   -2.9705    6.1638 H       1  LIG1        0.0238
     43 H          -6.3563   -2.1047    7.1815 H       1  LIG1        0.0238
     44 H          -4.6402   -2.1455    7.6181 H       1  LIG1        0.0238
     45 H          -5.9032   -1.6164    4.1022 H       1  LIG1        0.0238
     46 H          -5.9011    0.1502    4.1512 H       1  LIG1        0.0238
     47 H          -7.1026   -0.7653    5.0755 H       1  LIG1        0.0238
     48 H          -4.8534    0.4481    7.7810 H       1  LIG1        0.0238
     49 H          -6.5281    0.3050    7.2408 H       1  LIG1        0.0238
     50 H          -5.4232    1.3669    6.3723 H       1  LIG1        0.0238
     51 H          -3.7273   -2.6622    4.5028 H       1  LIG1        0.0621
     52 H          -3.1429    1.2471    6.2781 H       1  LIG1        0.0621
     53 H          -1.4255   -2.6357    3.7155 H       1  LIG1        0.0637
     54 H          -0.8572    1.2759    5.4322 H       1  LIG1        0.0637
     55 H           0.8651   -3.1438   -2.2885 H       1  LIG1        0.0720
     56 H           0.6782   -1.6838   -3.2959 H       1  LIG1        0.0720
     57 H          -0.4339   -3.4460    1.1800 H       1  LIG1        0.0655
     58 H          -5.1922   -2.9380   -0.1432 H       1  LIG1        0.0655
     59 H          -1.4999   -3.7817   -2.7869 H       1  LIG1        0.0591
     60 H          -1.6789   -2.3439   -3.7978 H       1  LIG1        0.0591
     61 H          -1.7973   -5.4305    0.6476 H       1  LIG1        0.0619
     62 H          -4.1715   -5.1687   -0.0244 H       1  LIG1        0.0619
     63 H           6.1433   -1.9585   -2.4200 H       1  LIG1        0.0831
     64 H           6.6703    1.3854    0.1784 H       1  LIG1        0.0831
     65 H           7.6969   -0.2518   -1.4268 H       1  LIG1        0.0648
     66 H          -5.4491    0.5758    0.9985 H       1  LIG1        0.0660
     67 H          -5.5417   -1.0769    1.6179 H       1  LIG1        0.0660
     68 H          -5.8845   -0.7260   -0.1173 H       1  LIG1        0.0660
@<TRIPOS>BOND
     1     1     2    2
     2     1     3    2
     3     1     8    1
     4     1    20    1
     5     4    24    1
     6     4    27    1
     7     5    25    1
     8     5    29    1
     9     6    30    1
    10     6    39    1
    11     7    33    1
    12     8    23    1
    13     9    23   ar
    14     9    26   ar
    15    10    25   ar
    16    10    26   ar
    17    11    28   ar
    18    11    36   ar
    19    12    28   ar
    20    12    37   ar
    21    13    14    1
    22    13    15    1
    23    13    16    1
    24    13    17    1
    25    14    18   ar
    26    14    19   ar
    27    18    21   ar
    28    19    22   ar
    29    20    21   ar
    30    20    22   ar
    31    23    24   ar
    32    24    25   ar
    33    26    28    1
    34    27    30   ar
    35    27    31   ar
    36    29    33    1
    37    30    32   ar
    38    31    34   ar
    39    32    35   ar
    40    34    35   ar
    41    36    38   ar
    42    37    38   ar
    43     7    40    1
    44     8    41    1
    45    15    42    1
    46    15    43    1
    47    15    44    1
    48    16    45    1
    49    16    46    1
    50    16    47    1
    51    17    48    1
    52    17    49    1
    53    17    50    1
    54    18    51    1
    55    19    52    1
    56    21    53    1
    57    22    54    1
    58    29    55    1
    59    29    56    1
    60    31    57    1
    61    32    58    1
    62    33    59    1
    63    33    60    1
    64    34    61    1
    65    35    62    1
    66    36    63    1
    67    37    64    1
    68    38    65    1
    69    39    66    1
    70    39    67    1
    71    39    68    1
