@<TRIPOS>MOLECULE
16219006
 85 88 0 0 0
SMALL
GASTEIGER

@<TRIPOS>ATOM
      1 O           4.5078   -1.0447    2.2428 O.2     1  PRO1       -0.2738
      2 O           3.4143    1.1728   -1.4276 O.2     5  ASP5       -0.2735
      3 O           2.1319   -2.2287   -1.8897 O.2     2  VAL2       -0.2738
      4 O          -0.3367    2.8402    1.3427 O.2     4  TRP4       -0.2738
      5 O          -0.1034   -1.0821    1.7400 O.2     3  LEU3       -0.2738
      6 OD1        -0.6514    3.6383   -2.6695 O.co2   5  ASP5       -0.5497
      7 OD2         0.7080    5.3681   -2.0318 O.co2   5  ASP5       -0.5497
      8 N           3.4723    1.8232    0.7352 N.am    1  PRO1       -0.2884
      9 N           4.1223   -1.0819   -0.0093 N.am    2  VAL2       -0.3022
     10 N           0.5502    1.7781   -0.4940 N.am    5  ASP5       -0.3021
     11 N           1.3252   -2.7992    0.1788 N.am    3  LEU3       -0.3025
     12 N          -1.1445   -0.3304   -0.1580 N.am    4  TRP4       -0.3022
     13 NE1        -5.4878   -0.6040   -1.3519 N.ar    4  TRP4       -0.3604
     14 CA          4.6986    1.0737    1.0167 C.3     1  PRO1        0.1023
     15 CB          5.2308    1.7101    2.3018 C.3     1  PRO1       -0.0243
     16 CG          3.9658    2.1721    3.0148 C.3     1  PRO1       -0.0350
     17 CD          3.0750    2.6376    1.8728 C.3     1  PRO1        0.0156
     18 C           4.4199   -0.4427    1.1745 C.2     1  PRO1        0.2342
     19 C           2.9346    1.8847   -0.5345 C.2     5  ASP5        0.2369
     20 CA          3.7460   -2.4899   -0.0827 C.3     2  VAL2        0.1017
     21 CA          1.6448    2.7109   -0.7506 C.3     5  ASP5        0.1047
     22 CB          4.7582   -3.2988   -0.9235 C.3     2  VAL2       -0.0197
     23 CA         -0.0641   -2.5445   -0.1843 C.3     3  LEU3        0.0996
     24 C           2.3396   -2.5058   -0.7104 C.2     2  VAL2        0.2342
     25 CB          1.6048    3.2061   -2.1893 C.3     5  ASP5        0.0138
     26 CA         -1.5539    0.9429    0.4533 C.3     4  TRP4        0.1034
     27 CB         -1.0103   -3.6622    0.2758 C.3     3  LEU3       -0.0236
     28 CG         -0.9439   -4.9528   -0.5679 C.3     3  LEU3       -0.0446
     29 C          -0.3744    1.9336    0.5127 C.2     4  TRP4        0.2343
     30 CB         -2.7190    1.5959   -0.3052 C.3     4  TRP4        0.0013
     31 C          -0.4294   -1.2522    0.5646 C.2     3  LEU3        0.2340
     32 CG1         4.2925   -4.7452   -1.1296 C.3     2  VAL2       -0.0605
     33 CG2         6.1372   -3.3144   -0.2524 C.3     2  VAL2       -0.0605
     34 CG         -3.9128    0.6892   -0.4468 C.ar    4  TRP4       -0.0201
     35 CG          0.4366    4.1648   -2.2977 C.2     5  ASP5        0.0440
     36 CD1         0.3587   -5.7295   -0.3739 C.3     3  LEU3       -0.0626
     37 CD2        -2.1256   -5.8605   -0.2122 C.3     3  LEU3       -0.0626
     38 CD2        -4.7401    0.1669    0.6004 C.ar    4  TRP4        0.0029
     39 CD1        -4.4144    0.1935   -1.6354 C.ar    4  TRP4        0.0060
     40 CE2        -5.7019   -0.6514    0.0055 C.ar    4  TRP4        0.0467
     41 CE3        -4.7563    0.3063    2.0037 C.ar    4  TRP4       -0.0523
     42 CZ2        -6.6692   -1.3457    0.7429 C.ar    4  TRP4       -0.0378
     43 CZ3        -5.7146   -0.3821    2.7566 C.ar    4  TRP4       -0.0611
     44 CH2        -6.6548   -1.1979    2.1329 C.ar    4  TRP4       -0.0598
     45 H           3.9029   -0.4854   -0.8154 H       2  VAL2        0.1495
     46 H           0.3839    1.0714   -1.1970 H       5  ASP5        0.1495
     47 H           1.5367   -2.6521    1.1639 H       3  LEU3        0.1495
     48 H          -1.3200   -0.4629   -1.1465 H       4  TRP4        0.1495
     49 HE1        -6.0485   -1.0878   -2.0383 H       4  TRP4        0.1653
     50 HA          5.4185    1.1998    0.1990 H       1  PRO1        0.0597
     51 HB1         5.8439    2.5851    2.0517 H       1  PRO1        0.0288
     52 HB2         5.8374    1.0393    2.9167 H       1  PRO1        0.0288
     53 HG1         4.1548    2.9615    3.7476 H       1  PRO1        0.0281
     54 HG2         3.4997    1.3274    3.5354 H       1  PRO1        0.0281
     55 HD1         2.0185    2.5027    2.1030 H       1  PRO1        0.0465
     56 HD2         3.2646    3.6874    1.6241 H       1  PRO1        0.0465
     57 HA          3.6947   -2.9132    0.9275 H       2  VAL2        0.0597
     58 HA          1.6034    3.5503   -0.0510 H       5  ASP5        0.0598
     59 HB          4.8688   -2.8349   -1.9125 H       2  VAL2        0.0318
     60 HA         -0.1614   -2.3837   -1.2630 H       3  LEU3        0.0594
     61 HB1         1.4889    2.3858   -2.9081 H       5  ASP5        0.0348
     62 HB2         2.5330    3.7319   -2.4454 H       5  ASP5        0.0348
     63 HA         -1.8367    0.7300    1.4910 H       4  TRP4        0.0598
     64 HB1        -2.0378   -3.2756    0.2286 H       3  LEU3        0.0290
     65 HB2        -0.8267   -3.9018    1.3321 H       3  LEU3        0.0290
     66 HG         -1.0343   -4.6888   -1.6291 H       3  LEU3        0.0296
     67 HB1        -2.3847    1.9006   -1.3054 H       4  TRP4        0.0337
     68 HB2        -3.0289    2.5161    0.2061 H       4  TRP4        0.0337
     69 HG11        4.0748   -5.2334   -0.1734 H       2  VAL2        0.0233
     70 HG12        5.0598   -5.3346   -1.6431 H       2  VAL2        0.0233
     71 HG13        3.3906   -4.7866   -1.7477 H       2  VAL2        0.0233
     72 HG21        6.0836   -3.7517    0.7507 H       2  VAL2        0.0233
     73 HG22        6.5486   -2.3044   -0.1620 H       2  VAL2        0.0233
     74 HG23        6.8485   -3.9059   -0.8392 H       2  VAL2        0.0233
     75 HD11        0.5697   -5.8978    0.6875 H       3  LEU3        0.0232
     76 HD12        1.2052   -5.1997   -0.8140 H       3  LEU3        0.0232
     77 HD13        0.3097   -6.7068   -0.8664 H       3  LEU3        0.0232
     78 HD21       -2.0948   -6.1576    0.8417 H       3  LEU3        0.0232
     79 HD22       -2.1153   -6.7706   -0.8217 H       3  LEU3        0.0232
     80 HD23       -3.0776   -5.3512   -0.3951 H       3  LEU3        0.0232
     81 HD1        -4.0963    0.3540   -2.6579 H       4  TRP4        0.0810
     82 HE3        -4.0307    0.9423    2.5027 H       4  TRP4        0.0624
     83 HZ2        -7.4060   -1.9769    0.2584 H       4  TRP4        0.0638
     84 HZ3        -5.7197   -0.2752    3.8382 H       4  TRP4        0.0618
     85 HH2        -7.3906   -1.7248    2.7351 H       4  TRP4        0.0618
@<TRIPOS>BOND
     1     1    18    2
     2     2    19    2
     3     3    24    2
     4     4    29    2
     5     5    31    2
     6     6    35   ar
     7     7    35   ar
     8     8    14    1
     9     8    17    1
    10     8    19   am
    11     9    18   am
    12     9    20    1
    13    10    21    1
    14    10    29   am
    15    11    23    1
    16    11    24   am
    17    12    26    1
    18    12    31   am
    19    13    39   ar
    20    13    40   ar
    21    14    15    1
    22    14    18    1
    23    15    16    1
    24    16    17    1
    25    19    21    1
    26    20    22    1
    27    20    24    1
    28    21    25    1
    29    22    32    1
    30    22    33    1
    31    23    27    1
    32    23    31    1
    33    25    35    1
    34    26    29    1
    35    26    30    1
    36    27    28    1
    37    28    36    1
    38    28    37    1
    39    30    34    1
    40    34    38   ar
    41    34    39   ar
    42    38    40   ar
    43    38    41   ar
    44    40    42   ar
    45    41    43   ar
    46    42    44   ar
    47    43    44   ar
    48     9    45    1
    49    10    46    1
    50    11    47    1
    51    12    48    1
    52    13    49    1
    53    14    50    1
    54    15    51    1
    55    15    52    1
    56    16    53    1
    57    16    54    1
    58    17    55    1
    59    17    56    1
    60    20    57    1
    61    21    58    1
    62    22    59    1
    63    23    60    1
    64    25    61    1
    65    25    62    1
    66    26    63    1
    67    27    64    1
    68    27    65    1
    69    28    66    1
    70    30    67    1
    71    30    68    1
    72    32    69    1
    73    32    70    1
    74    32    71    1
    75    33    72    1
    76    33    73    1
    77    33    74    1
    78    36    75    1
    79    36    76    1
    80    36    77    1
    81    37    78    1
    82    37    79    1
    83    37    80    1
    84    39    81    1
    85    41    82    1
    86    42    83    1
    87    43    84    1
    88    44    85    1
@<TRIPOS>MOLECULE
16219006
 85 88 0 0 0
SMALL
GASTEIGER

@<TRIPOS>ATOM
      1 O           4.1931   -1.0870    2.2514 O.2     1  PRO1       -0.2738
      2 O           3.0669    0.9311   -1.3291 O.2     5  ASP5       -0.2735
      3 O           2.1417   -2.4952   -1.9143 O.2     2  VAL2       -0.2738
      4 O          -0.4757    2.9646    1.2252 O.2     4  TRP4       -0.2738
      5 O          -0.1373   -0.9953    1.7373 O.2     3  LEU3       -0.2738
      6 OD1         3.7373    4.3879   -1.1887 O.co2   5  ASP5       -0.5497
      7 OD2         2.6595    5.4582   -2.8884 O.co2   5  ASP5       -0.5497
      8 N           3.3988    1.7425    0.7639 N.am    1  PRO1       -0.2884
      9 N           4.1572   -1.2140   -0.0330 N.am    2  VAL2       -0.3022
     10 N           0.4309    1.9668   -0.6361 N.am    5  ASP5       -0.3021
     11 N           1.3441   -2.7407    0.2187 N.am    3  LEU3       -0.3025
     12 N          -1.1116   -0.2781   -0.2069 N.am    4  TRP4       -0.3022
     13 NE1        -5.4892   -0.7109   -1.3552 N.ar    4  TRP4       -0.3604
     14 CA          4.6190    0.9664    0.9724 C.3     1  PRO1        0.1023
     15 CB          5.2639    1.5897    2.2141 C.3     1  PRO1       -0.0243
     16 CG          4.0891    2.2134    2.9569 C.3     1  PRO1       -0.0350
     17 CD          3.2061    2.7138    1.8266 C.3     1  PRO1        0.0156
     18 C           4.3068   -0.5357    1.1586 C.2     1  PRO1        0.2342
     19 C           2.8062    1.7995   -0.4821 C.2     5  ASP5        0.2369
     20 CA          3.7702   -2.6183   -0.1006 C.3     2  VAL2        0.1017
     21 CA          1.6429    2.8012   -0.7016 C.3     5  ASP5        0.1047
     22 CB          4.7754   -3.4317   -0.9452 C.3     2  VAL2       -0.0197
     23 CA         -0.0402   -2.4975   -0.1589 C.3     3  LEU3        0.0996
     24 C           2.3567   -2.6297   -0.7116 C.2     2  VAL2        0.2342
     25 CB          1.7318    3.4674   -2.0640 C.3     5  ASP5        0.0138
     26 CA         -1.5763    0.9828    0.3840 C.3     4  TRP4        0.1034
     27 CB         -0.9867   -3.6150    0.3041 C.3     3  LEU3       -0.0236
     28 CG         -0.9136   -4.9123   -0.5307 C.3     3  LEU3       -0.0446
     29 C          -0.4554    2.0382    0.4166 C.2     4  TRP4        0.2343
     30 CB         -2.7688    1.5759   -0.3809 C.3     4  TRP4        0.0013
     31 C          -0.4224   -1.1905    0.5560 C.2     3  LEU3        0.2340
     32 CG1         4.3082   -4.8788   -1.1413 C.3     2  VAL2       -0.0605
     33 CG2         6.1562   -3.4454   -0.2772 C.3     2  VAL2       -0.0605
     34 CG         -3.9352    0.6362   -0.4962 C.ar    4  TRP4       -0.0201
     35 CG          2.8181    4.5361   -2.0397 C.2     5  ASP5        0.0440
     36 CD1         0.3815   -5.6955   -0.3130 C.3     3  LEU3       -0.0626
     37 CD2        -2.1034   -5.8145   -0.1868 C.3     3  LEU3       -0.0626
     38 CD2        -4.7439    0.1239    0.5708 C.ar    4  TRP4        0.0029
     39 CD1        -4.4333    0.1000   -1.6685 C.ar    4  TRP4        0.0060
     40 CE2        -5.6962   -0.7237    0.0030 C.ar    4  TRP4        0.0467
     41 CE3        -4.7512    0.2974    1.9701 C.ar    4  TRP4       -0.0523
     42 CZ2        -6.6487   -1.4132    0.7645 C.ar    4  TRP4       -0.0378
     43 CZ3        -5.6934   -0.3865    2.7464 C.ar    4  TRP4       -0.0611
     44 CH2        -6.6268   -1.2303    2.1488 C.ar    4  TRP4       -0.0598
     45 H           3.9396   -0.6245   -0.8454 H       2  VAL2        0.1495
     46 H           0.4875    1.0930   -1.1441 H       5  ASP5        0.1495
     47 H           1.5825   -2.5079    1.1823 H       3  LEU3        0.1495
     48 H          -1.2817   -0.4509   -1.1896 H       4  TRP4        0.1495
     49 HE1        -6.0414   -1.2265   -2.0258 H       4  TRP4        0.1653
     50 HA          5.2868    1.0763    0.1082 H       1  PRO1        0.0597
     51 HB1         5.9566    2.3834    1.9066 H       1  PRO1        0.0288
     52 HB2         5.8211    0.8801    2.8322 H       1  PRO1        0.0288
     53 HG1         4.3921    3.0124    3.6385 H       1  PRO1        0.0281
     54 HG2         3.5631    1.4461    3.5368 H       1  PRO1        0.0281
     55 HD1         2.1553    2.7714    2.1184 H       1  PRO1        0.0465
     56 HD2         3.5402    3.6938    1.4703 H       1  PRO1        0.0465
     57 HA          3.7242   -3.0428    0.9099 H       2  VAL2        0.0597
     58 HA          1.6010    3.5578    0.0849 H       5  ASP5        0.0598
     59 HB          4.8824   -2.9713   -1.9358 H       2  VAL2        0.0318
     60 HA         -0.1285   -2.3562   -1.2413 H       3  LEU3        0.0594
     61 HB1         0.7737    3.9393   -2.3163 H       5  ASP5        0.0348
     62 HB2         1.9642    2.7510   -2.8604 H       5  ASP5        0.0348
     63 HA         -1.8476    0.7801    1.4265 H       4  TRP4        0.0598
     64 HB1        -2.0147   -3.2308    0.2477 H       3  LEU3        0.0290
     65 HB2        -0.8087   -3.8462    1.3630 H       3  LEU3        0.0290
     66 HG         -0.9878   -4.6554   -1.5946 H       3  LEU3        0.0296
     67 HB1        -2.4501    1.8743   -1.3892 H       4  TRP4        0.0337
     68 HB2        -3.1058    2.4969    0.1129 H       4  TRP4        0.0337
     69 HG11        4.0878   -5.3597   -0.1823 H       2  VAL2        0.0233
     70 HG12        5.0759   -5.4729   -1.6490 H       2  VAL2        0.0233
     71 HG13        3.4077   -4.9249   -1.7610 H       2  VAL2        0.0233
     72 HG21        6.1056   -3.8820    0.7264 H       2  VAL2        0.0233
     73 HG22        6.5670   -2.4350   -0.1884 H       2  VAL2        0.0233
     74 HG23        6.8668   -4.0373   -0.8654 H       2  VAL2        0.0233
     75 HD11        0.5804   -5.8524    0.7528 H       3  LEU3        0.0232
     76 HD12        1.2358   -5.1777   -0.7503 H       3  LEU3        0.0232
     77 HD13        0.3319   -6.6779   -0.7944 H       3  LEU3        0.0232
     78 HD21       -2.0875   -6.1077    0.8680 H       3  LEU3        0.0232
     79 HD22       -2.0879   -6.7271   -0.7928 H       3  LEU3        0.0232
     80 HD23       -3.0513   -5.3031   -0.3852 H       3  LEU3        0.0232
     81 HD1        -4.1277    0.2335   -2.6977 H       4  TRP4        0.0810
     82 HE3        -4.0313    0.9524    2.4517 H       4  TRP4        0.0624
     83 HZ2        -7.3792   -2.0669    0.3021 H       4  TRP4        0.0638
     84 HZ3        -5.6915   -0.2569    3.8264 H       4  TRP4        0.0618
     85 HH2        -7.3504   -1.7538    2.7705 H       4  TRP4        0.0618
@<TRIPOS>BOND
     1     1    18    2
     2     2    19    2
     3     3    24    2
     4     4    29    2
     5     5    31    2
     6     6    35   ar
     7     7    35   ar
     8     8    14    1
     9     8    17    1
    10     8    19   am
    11     9    18   am
    12     9    20    1
    13    10    21    1
    14    10    29   am
    15    11    23    1
    16    11    24   am
    17    12    26    1
    18    12    31   am
    19    13    39   ar
    20    13    40   ar
    21    14    15    1
    22    14    18    1
    23    15    16    1
    24    16    17    1
    25    19    21    1
    26    20    22    1
    27    20    24    1
    28    21    25    1
    29    22    32    1
    30    22    33    1
    31    23    27    1
    32    23    31    1
    33    25    35    1
    34    26    29    1
    35    26    30    1
    36    27    28    1
    37    28    36    1
    38    28    37    1
    39    30    34    1
    40    34    38   ar
    41    34    39   ar
    42    38    40   ar
    43    38    41   ar
    44    40    42   ar
    45    41    43   ar
    46    42    44   ar
    47    43    44   ar
    48     9    45    1
    49    10    46    1
    50    11    47    1
    51    12    48    1
    52    13    49    1
    53    14    50    1
    54    15    51    1
    55    15    52    1
    56    16    53    1
    57    16    54    1
    58    17    55    1
    59    17    56    1
    60    20    57    1
    61    21    58    1
    62    22    59    1
    63    23    60    1
    64    25    61    1
    65    25    62    1
    66    26    63    1
    67    27    64    1
    68    27    65    1
    69    28    66    1
    70    30    67    1
    71    30    68    1
    72    32    69    1
    73    32    70    1
    74    32    71    1
    75    33    72    1
    76    33    73    1
    77    33    74    1
    78    36    75    1
    79    36    76    1
    80    36    77    1
    81    37    78    1
    82    37    79    1
    83    37    80    1
    84    39    81    1
    85    41    82    1
    86    42    83    1
    87    43    84    1
    88    44    85    1
@<TRIPOS>MOLECULE
16219006
 85 88 0 0 0
SMALL
GASTEIGER

@<TRIPOS>ATOM
      1 O           4.3586   -1.0577    2.2239 O.2     1  PRO1       -0.2738
      2 O           3.1691    1.0531   -1.3475 O.2     5  ASP5       -0.2735
      3 O           2.0418   -2.1972   -1.9006 O.2     2  VAL2       -0.2738
      4 O          -0.4848    2.9439    1.2396 O.2     4  TRP4       -0.2738
      5 O          -0.1776   -1.0733    1.7469 O.2     3  LEU3       -0.2738
      6 OD1         3.5656    4.6081   -1.0946 O.co2   5  ASP5       -0.5497
      7 OD2         3.0320    4.9705   -3.2821 O.co2   5  ASP5       -0.5497
      8 N           3.4228    1.7983    0.7792 N.am    1  PRO1       -0.2884
      9 N           4.1406   -1.1025   -0.0538 N.am    2  VAL2       -0.3022
     10 N           0.4596    1.9519   -0.6049 N.am    5  ASP5       -0.3021
     11 N           1.3080   -2.8060    0.1758 N.am    3  LEU3       -0.3025
     12 N          -1.0921   -0.3074   -0.2070 N.am    4  TRP4       -0.3022
     13 NE1        -5.4750   -0.7353   -1.3584 N.ar    4  TRP4       -0.3604
     14 CA          4.6591    1.0471    0.9953 C.3     1  PRO1        0.1023
     15 CB          5.2633    1.6632    2.2602 C.3     1  PRO1       -0.0243
     16 CG          4.0534    2.2194    3.0008 C.3     1  PRO1       -0.0350
     17 CD          3.1717    2.7234    1.8707 C.3     1  PRO1        0.0156
     18 C           4.3736   -0.4649    1.1467 C.2     1  PRO1        0.2342
     19 C           2.8504    1.8747   -0.4748 C.2     5  ASP5        0.2369
     20 CA          3.7241   -2.4939   -0.1472 C.3     2  VAL2        0.1017
     21 CA          1.6448    2.8248   -0.6818 C.3     5  ASP5        0.1047
     22 CB          4.7448   -3.3400   -0.9392 C.3     2  VAL2       -0.0197
     23 CA         -0.0876   -2.5579   -0.1606 C.3     3  LEU3        0.0996
     24 C           2.2990   -2.5001   -0.7377 C.2     2  VAL2        0.2342
     25 CB          1.7019    3.4845   -2.0491 C.3     5  ASP5        0.0138
     26 CA         -1.5564    0.9522    0.3871 C.3     4  TRP4        0.1034
     27 CB         -1.0203   -3.6719    0.3349 C.3     3  LEU3       -0.0236
     28 CG         -0.9920   -4.9569   -0.5204 C.3     3  LEU3       -0.0446
     29 C          -0.4428    2.0158    0.4336 C.2     4  TRP4        0.2343
     30 CB         -2.7478    1.5449   -0.3819 C.3     4  TRP4        0.0013
     31 C          -0.4467   -1.2477    0.5602 C.2     3  LEU3        0.2340
     32 CG1         5.0027   -2.8639   -2.3713 C.3     2  VAL2       -0.0605
     33 CG2         4.3511   -4.8198   -0.9436 C.3     2  VAL2       -0.0605
     34 CG         -3.9169    0.6082   -0.4979 C.ar    4  TRP4       -0.0201
     35 CG          2.8853    4.4409   -2.1445 C.2     5  ASP5        0.0440
     36 CD1         0.3228   -5.7277   -0.4010 C.3     3  LEU3       -0.0626
     37 CD2        -2.1508   -5.8728   -0.1145 C.3     3  LEU3       -0.0626
     38 CD2        -4.7354    0.1077    0.5671 C.ar    4  TRP4        0.0029
     39 CD1        -4.4115    0.0670   -1.6695 C.ar    4  TRP4        0.0060
     40 CE2        -5.6904   -0.7368   -0.0007 C.ar    4  TRP4        0.0467
     41 CE3        -4.7510    0.2900    1.9656 C.ar    4  TRP4       -0.0523
     42 CZ2        -6.6534   -1.4133    0.7586 C.ar    4  TRP4       -0.0378
     43 CZ3        -5.7038   -0.3818    2.7404 C.ar    4  TRP4       -0.0611
     44 CH2        -6.6397   -1.2217    2.1431 C.ar    4  TRP4       -0.0598
     45 H           3.9091   -0.4870   -0.8437 H       2  VAL2        0.1495
     46 H           0.5357    1.0798   -1.1140 H       5  ASP5        0.1495
     47 H           1.5449   -2.6704    1.1569 H       3  LEU3        0.1495
     48 H          -1.2143   -0.4538   -1.2008 H       4  TRP4        0.1495
     49 HE1        -6.0296   -1.2521   -2.0259 H       4  TRP4        0.1653
     50 HA          5.3391    1.1840    0.1453 H       1  PRO1        0.0597
     51 HB1         5.9267    2.4921    1.9825 H       1  PRO1        0.0288
     52 HB2         5.8411    0.9617    2.8687 H       1  PRO1        0.0288
     53 HG1         4.3147    3.0065    3.7135 H       1  PRO1        0.0281
     54 HG2         3.5464    1.4150    3.5467 H       1  PRO1        0.0281
     55 HD1         2.1139    2.7295    2.1434 H       1  PRO1        0.0465
     56 HD2         3.4728    3.7275    1.5537 H       1  PRO1        0.0465
     57 HA          3.6735   -2.9105    0.8664 H       2  VAL2        0.0597
     58 HA          1.5848    3.5837    0.1013 H       5  ASP5        0.0598
     59 HB          5.7032   -3.2627   -0.4067 H       2  VAL2        0.0318
     60 HA         -0.2098   -2.4239   -1.2403 H       3  LEU3        0.0594
     61 HB1         0.7829    4.0556   -2.2298 H       5  ASP5        0.0348
     62 HB2         1.7840    2.7390   -2.8498 H       5  ASP5        0.0348
     63 HA         -1.8349    0.7453    1.4270 H       4  TRP4        0.0598
     64 HB1        -2.0477   -3.2820    0.3301 H       3  LEU3        0.0290
     65 HB2        -0.7945   -3.9180    1.3812 H       3  LEU3        0.0290
     66 HG         -1.1373   -4.6854   -1.5736 H       3  LEU3        0.0296
     67 HB1        -2.4260    1.8401   -1.3903 H       4  TRP4        0.0337
     68 HB2        -3.0846    2.4676    0.1087 H       4  TRP4        0.0337
     69 HG11        4.1305   -3.0065   -3.0156 H       2  VAL2        0.0233
     70 HG12        5.8274   -3.4333   -2.8148 H       2  VAL2        0.0233
     71 HG13        5.2845   -1.8071   -2.3992 H       2  VAL2        0.0233
     72 HG21        3.4502   -4.9940   -1.5400 H       2  VAL2        0.0233
     73 HG22        4.1636   -5.1797    0.0736 H       2  VAL2        0.0233
     74 HG23        5.1541   -5.4311   -1.3694 H       2  VAL2        0.0233
     75 HD11        0.5896   -5.9037    0.6465 H       3  LEU3        0.0232
     76 HD12        1.1420   -5.1884   -0.8805 H       3  LEU3        0.0232
     77 HD13        0.2538   -6.7011   -0.8989 H       3  LEU3        0.0232
     78 HD21       -2.0671   -6.1787    0.9338 H       3  LEU3        0.0232
     79 HD22       -2.1667   -6.7777   -0.7318 H       3  LEU3        0.0232
     80 HD23       -3.1127   -5.3663   -0.2466 H       3  LEU3        0.0232
     81 HD1        -4.0991    0.1922   -2.6980 H       4  TRP4        0.0810
     82 HE3        -4.0286    0.9432    2.4471 H       4  TRP4        0.0624
     83 HZ2        -7.3861   -2.0653    0.2955 H       4  TRP4        0.0638
     84 HZ3        -5.7076   -0.2441    3.8188 H       4  TRP4        0.0618
     85 HH2        -7.3714   -1.7349    2.7624 H       4  TRP4        0.0618
@<TRIPOS>BOND
     1     1    18    2
     2     2    19    2
     3     3    24    2
     4     4    29    2
     5     5    31    2
     6     6    35   ar
     7     7    35   ar
     8     8    14    1
     9     8    17    1
    10     8    19   am
    11     9    18   am
    12     9    20    1
    13    10    21    1
    14    10    29   am
    15    11    23    1
    16    11    24   am
    17    12    26    1
    18    12    31   am
    19    13    39   ar
    20    13    40   ar
    21    14    15    1
    22    14    18    1
    23    15    16    1
    24    16    17    1
    25    19    21    1
    26    20    22    1
    27    20    24    1
    28    21    25    1
    29    22    32    1
    30    22    33    1
    31    23    27    1
    32    23    31    1
    33    25    35    1
    34    26    29    1
    35    26    30    1
    36    27    28    1
    37    28    36    1
    38    28    37    1
    39    30    34    1
    40    34    38   ar
    41    34    39   ar
    42    38    40   ar
    43    38    41   ar
    44    40    42   ar
    45    41    43   ar
    46    42    44   ar
    47    43    44   ar
    48     9    45    1
    49    10    46    1
    50    11    47    1
    51    12    48    1
    52    13    49    1
    53    14    50    1
    54    15    51    1
    55    15    52    1
    56    16    53    1
    57    16    54    1
    58    17    55    1
    59    17    56    1
    60    20    57    1
    61    21    58    1
    62    22    59    1
    63    23    60    1
    64    25    61    1
    65    25    62    1
    66    26    63    1
    67    27    64    1
    68    27    65    1
    69    28    66    1
    70    30    67    1
    71    30    68    1
    72    32    69    1
    73    32    70    1
    74    32    71    1
    75    33    72    1
    76    33    73    1
    77    33    74    1
    78    36    75    1
    79    36    76    1
    80    36    77    1
    81    37    78    1
    82    37    79    1
    83    37    80    1
    84    39    81    1
    85    41    82    1
    86    42    83    1
    87    43    84    1
    88    44    85    1
@<TRIPOS>MOLECULE
16219006
 85 88 0 0 0
SMALL
GASTEIGER

@<TRIPOS>ATOM
      1 O           4.2398   -1.1105    2.2531 O.2     1  PRO1       -0.2738
      2 O           3.0769    0.9483   -1.3224 O.2     5  ASP5       -0.2735
      3 O           2.1299   -2.5241   -1.9204 O.2     2  VAL2       -0.2738
      4 O          -0.4949    2.9561    1.2456 O.2     4  TRP4       -0.2738
      5 O          -0.1362   -0.9764    1.7271 O.2     3  LEU3       -0.2738
      6 OD1         3.6720    4.4481   -1.1216 O.co2   5  ASP5       -0.5497
      7 OD2         2.7654    5.3135   -3.0261 O.co2   5  ASP5       -0.5497
      8 N           3.3904    1.7332    0.7829 N.am    1  PRO1       -0.2884
      9 N           4.1284   -1.2092   -0.0291 N.am    2  VAL2       -0.3022
     10 N           0.4232    1.9602   -0.6113 N.am    5  ASP5       -0.3021
     11 N           1.3341   -2.7357    0.2168 N.am    3  LEU3       -0.3025
     12 N          -1.1329   -0.2744   -0.2104 N.am    4  TRP4       -0.3022
     13 NE1        -5.6909   -0.6175    0.0118 N.ar    4  TRP4       -0.3604
     14 CA          4.6146    0.9624    0.9899 C.3     1  PRO1        0.1023
     15 CB          5.2516    1.5819    2.2375 C.3     1  PRO1       -0.0243
     16 CG          4.0679    2.1828    2.9848 C.3     1  PRO1       -0.0350
     17 CD          3.1825    2.6872    1.8583 C.3     1  PRO1        0.0156
     18 C           4.3121   -0.5432    1.1635 C.2     1  PRO1        0.2342
     19 C           2.8033    1.8024   -0.4652 C.2     5  ASP5        0.2369
     20 CA          3.7602   -2.6170   -0.1064 C.3     2  VAL2        0.1017
     21 CA          1.6329    2.7972   -0.6775 C.3     5  ASP5        0.1047
     22 CB          4.7752   -3.4097   -0.9584 C.3     2  VAL2       -0.0197
     23 CA         -0.0505   -2.4891   -0.1619 C.3     3  LEU3        0.0996
     24 C           2.3465   -2.6406   -0.7161 C.2     2  VAL2        0.2342
     25 CB          1.7137    3.4651   -2.0396 C.3     5  ASP5        0.0138
     26 CA         -1.6013    0.9869    0.3791 C.3     4  TRP4        0.1034
     27 CB         -1.0007   -3.6015    0.3048 C.3     3  LEU3       -0.0236
     28 CG         -0.9428   -4.8968   -0.5338 C.3     3  LEU3       -0.0446
     29 C          -0.4725    2.0335    0.4332 C.2     4  TRP4        0.2343
     30 CB         -2.7718    1.5938   -0.4089 C.3     4  TRP4        0.0013
     31 C          -0.4311   -1.1796    0.5495 C.2     3  LEU3        0.2340
     32 CG1         4.3361   -4.8673   -1.1468 C.3     2  VAL2       -0.0605
     33 CG2         6.1638   -3.3933   -0.3057 C.3     2  VAL2       -0.0605
     34 CG         -3.9489    0.6683   -0.5204 C.ar    4  TRP4       -0.0201
     35 CG          2.8284    4.5038   -2.0589 C.2     5  ASP5        0.0440
     36 CD1         0.3441   -5.6943   -0.3196 C.3     3  LEU3       -0.0626
     37 CD2        -2.1424   -5.7865   -0.1908 C.3     3  LEU3       -0.0626
     38 CD2        -4.4652    0.0726   -1.7166 C.ar    4  TRP4        0.0029
     39 CD1        -4.7405    0.2236    0.5212 C.ar    4  TRP4        0.0060
     40 CE2        -5.5473   -0.7289   -1.3509 C.ar    4  TRP4        0.0467
     41 CE3        -4.1116    0.1401   -3.0805 C.ar    4  TRP4       -0.0523
     42 CZ2        -6.2910   -1.4690   -2.2782 C.ar    4  TRP4       -0.0378
     43 CZ3        -4.8468   -0.5906   -4.0211 C.ar    4  TRP4       -0.0611
     44 CH2        -5.9196   -1.3838   -3.6229 C.ar    4  TRP4       -0.0598
     45 H           3.9049   -0.6118   -0.8346 H       2  VAL2        0.1495
     46 H           0.4741    1.0900   -1.1265 H       5  ASP5        0.1495
     47 H           1.5755   -2.4929    1.1771 H       3  LEU3        0.1495
     48 H          -1.3614   -0.4798   -1.1756 H       4  TRP4        0.1495
     49 HE1        -6.4008   -1.0892    0.5539 H       4  TRP4        0.1653
     50 HA          5.2845    1.0796    0.1289 H       1  PRO1        0.0597
     51 HB1         5.9335    2.3874    1.9373 H       1  PRO1        0.0288
     52 HB2         5.8184    0.8744    2.8496 H       1  PRO1        0.0288
     53 HG1         4.3603    2.9768    3.6774 H       1  PRO1        0.0281
     54 HG2         3.5493    1.4026    3.5540 H       1  PRO1        0.0281
     55 HD1         2.1296    2.7278    2.1468 H       1  PRO1        0.0465
     56 HD2         3.5058    3.6761    1.5166 H       1  PRO1        0.0465
     57 HA          3.7205   -3.0497    0.9004 H       2  VAL2        0.0597
     58 HA          1.5904    3.5523    0.1103 H       5  ASP5        0.0598
     59 HB          4.8628   -2.9496   -1.9516 H       2  VAL2        0.0318
     60 HA         -0.1377   -2.3492   -1.2445 H       3  LEU3        0.0594
     61 HB1         0.7647    3.9664   -2.2684 H       5  ASP5        0.0348
     62 HB2         1.9006    2.7392   -2.8399 H       5  ASP5        0.0348
     63 HA         -1.9006    0.7805    1.4146 H       4  TRP4        0.0598
     64 HB1        -2.0265   -3.2105    0.2565 H       3  LEU3        0.0290
     65 HB2        -0.8171   -3.8369    1.3619 H       3  LEU3        0.0290
     66 HG         -1.0158   -4.6359   -1.5972 H       3  LEU3        0.0296
     67 HB1        -2.4337    1.8831   -1.4121 H       4  TRP4        0.0337
     68 HB2        -3.1014    2.5228    0.0751 H       4  TRP4        0.0337
     69 HG11        4.1499   -5.3537   -0.1834 H       2  VAL2        0.0233
     70 HG12        5.1056   -5.4422   -1.6729 H       2  VAL2        0.0233
     71 HG13        3.4224   -4.9335   -1.7443 H       2  VAL2        0.0233
     72 HG21        6.1322   -3.8268    0.7001 H       2  VAL2        0.0233
     73 HG22        6.5551   -2.3747   -0.2249 H       2  VAL2        0.0233
     74 HG23        6.8792   -3.9728   -0.8993 H       2  VAL2        0.0233
     75 HD11        0.5373   -5.8640    0.7447 H       3  LEU3        0.0232
     76 HD12        1.2061   -5.1812   -0.7484 H       3  LEU3        0.0232
     77 HD13        0.2857   -6.6716   -0.8112 H       3  LEU3        0.0232
     78 HD21       -2.1281   -6.0828    0.8633 H       3  LEU3        0.0232
     79 HD22       -2.1382   -6.6973   -0.7992 H       3  LEU3        0.0232
     80 HD23       -3.0844   -5.2636   -0.3857 H       3  LEU3        0.0232
     81 HD1        -4.6992    0.4303    1.5829 H       4  TRP4        0.0810
     82 HE3        -3.2830    0.7616   -3.4085 H       4  TRP4        0.0624
     83 HZ2        -7.1299   -2.0845   -1.9711 H       4  TRP4        0.0638
     84 HZ3        -4.5770   -0.5317   -5.0726 H       4  TRP4        0.0618
     85 HH2        -6.4797   -1.9419   -4.3694 H       4  TRP4        0.0618
@<TRIPOS>BOND
     1     1    18    2
     2     2    19    2
     3     3    24    2
     4     4    29    2
     5     5    31    2
     6     6    35   ar
     7     7    35   ar
     8     8    14    1
     9     8    17    1
    10     8    19   am
    11     9    18   am
    12     9    20    1
    13    10    21    1
    14    10    29   am
    15    11    23    1
    16    11    24   am
    17    12    26    1
    18    12    31   am
    19    13    39   ar
    20    13    40   ar
    21    14    15    1
    22    14    18    1
    23    15    16    1
    24    16    17    1
    25    19    21    1
    26    20    22    1
    27    20    24    1
    28    21    25    1
    29    22    32    1
    30    22    33    1
    31    23    27    1
    32    23    31    1
    33    25    35    1
    34    26    29    1
    35    26    30    1
    36    27    28    1
    37    28    36    1
    38    28    37    1
    39    30    34    1
    40    34    38   ar
    41    34    39   ar
    42    38    40   ar
    43    38    41   ar
    44    40    42   ar
    45    41    43   ar
    46    42    44   ar
    47    43    44   ar
    48     9    45    1
    49    10    46    1
    50    11    47    1
    51    12    48    1
    52    13    49    1
    53    14    50    1
    54    15    51    1
    55    15    52    1
    56    16    53    1
    57    16    54    1
    58    17    55    1
    59    17    56    1
    60    20    57    1
    61    21    58    1
    62    22    59    1
    63    23    60    1
    64    25    61    1
    65    25    62    1
    66    26    63    1
    67    27    64    1
    68    27    65    1
    69    28    66    1
    70    30    67    1
    71    30    68    1
    72    32    69    1
    73    32    70    1
    74    32    71    1
    75    33    72    1
    76    33    73    1
    77    33    74    1
    78    36    75    1
    79    36    76    1
    80    36    77    1
    81    37    78    1
    82    37    79    1
    83    37    80    1
    84    39    81    1
    85    41    82    1
    86    42    83    1
    87    43    84    1
    88    44    85    1
@<TRIPOS>MOLECULE
16219006
 85 88 0 0 0
SMALL
GASTEIGER

@<TRIPOS>ATOM
      1 O           4.4586   -1.0012    2.2344 O.2     1  PRO1       -0.2738
      2 O           3.4588    1.1941   -1.4554 O.2     5  ASP5       -0.2735
      3 O           2.0787   -1.8739   -1.8307 O.2     2  VAL2       -0.2738
      4 O          -0.2434    2.8922    1.3820 O.2     4  TRP4       -0.2738
      5 O          -0.2283   -1.2618    1.7610 O.2     3  LEU3       -0.2738
      6 OD1         0.8753    5.3947   -2.3422 O.co2   5  ASP5       -0.5497
      7 OD2        -0.6704    3.7103   -2.4680 O.co2   5  ASP5       -0.5497
      8 N           3.5291    1.8473    0.7048 N.am    1  PRO1       -0.2884
      9 N           4.1575   -1.0784   -0.0328 N.am    2  VAL2       -0.3022
     10 N           0.5959    1.7860   -0.4495 N.am    5  ASP5       -0.3021
     11 N           1.2303   -2.8487    0.0599 N.am    3  LEU3       -0.3025
     12 N          -1.1328   -0.2814   -0.1056 N.am    4  TRP4       -0.3022
     13 NE1        -5.5735   -0.3256   -1.2830 N.ar    4  TRP4       -0.3604
     14 CA          4.7489    1.0843    0.9748 C.3     1  PRO1        0.1023
     15 CB          5.3046    1.7202    2.2493 C.3     1  PRO1       -0.0243
     16 CG          4.0556    2.2075    2.9749 C.3     1  PRO1       -0.0350
     17 CD          3.1533    2.6723    1.8416 C.3     1  PRO1        0.0156
     18 C           4.4356   -0.4229    1.1491 C.2     1  PRO1        0.2342
     19 C           2.9787    1.9017   -0.5593 C.2     5  ASP5        0.2369
     20 CA          3.6552   -2.4485   -0.0668 C.3     2  VAL2        0.1017
     21 CA          1.6783    2.7161   -0.7657 C.3     5  ASP5        0.1047
     22 CB          4.5803   -3.3797   -0.8809 C.3     2  VAL2       -0.0197
     23 CA         -0.1539   -2.5312   -0.2972 C.3     3  LEU3        0.0996
     24 C           2.2612   -2.3561   -0.7158 C.2     2  VAL2        0.2342
     25 CB          1.6019    3.1663   -2.2195 C.3     5  ASP5        0.0138
     26 CA         -1.4827    0.9694    0.5822 C.3     4  TRP4        0.1034
     27 CB         -1.0644   -3.7188    0.0321 C.3     3  LEU3       -0.0236
     28 CG         -2.5450   -3.5261   -0.3470 C.3     3  LEU3       -0.0446
     29 C          -0.3049    1.9666    0.5743 C.2     4  TRP4        0.2343
     30 CB         -2.7186    1.6432   -0.0307 C.3     4  TRP4        0.0013
     31 C          -0.5060   -1.3055    0.5602 C.2     3  LEU3        0.2340
     32 CG1         4.0107   -4.8019   -0.9610 C.3     2  VAL2       -0.0605
     33 CG2         5.9842   -3.4413   -0.2667 C.3     2  VAL2       -0.0605
     34 CG         -3.8948    0.7244   -0.2510 C.ar    4  TRP4       -0.0201
     35 CG          0.4925    4.1927   -2.3416 C.2     5  ASP5        0.0440
     36 CD1        -2.7482   -3.3015   -1.8456 C.3     3  LEU3       -0.0626
     37 CD2        -3.3593   -4.7397    0.1079 C.3     3  LEU3       -0.0626
     38 CD2        -4.5086   -0.1898    0.6713 C.ar    4  TRP4        0.0029
     39 CD1        -4.5923    0.6109   -1.4396 C.ar    4  TRP4        0.0060
     40 CE2        -5.5340   -0.8484   -0.0130 C.ar    4  TRP4        0.0467
     41 CE3        -4.2797   -0.5449    2.0182 C.ar    4  TRP4       -0.0523
     42 CZ2        -6.3225   -1.8473    0.5724 C.ar    4  TRP4       -0.0378
     43 CZ3        -5.0515   -1.5493    2.6157 C.ar    4  TRP4       -0.0611
     44 CH2        -6.0562   -2.1919    1.8999 C.ar    4  TRP4       -0.0598
     45 H           3.9475   -0.4845   -0.8437 H       2  VAL2        0.1495
     46 H           0.4328    1.0414   -1.1131 H       5  ASP5        0.1495
     47 H           1.4045   -2.8742    1.0616 H       3  LEU3        0.1495
     48 H          -1.2865   -0.3274   -1.1070 H       4  TRP4        0.1495
     49 HE1        -6.2302   -0.6022   -1.9982 H       4  TRP4        0.1653
     50 HA          5.4609    1.1909    0.1472 H       1  PRO1        0.0597
     51 HB1         5.9284    2.5838    1.9872 H       1  PRO1        0.0288
     52 HB2         5.9068    1.0427    2.8613 H       1  PRO1        0.0288
     53 HG1         4.2655    3.0016    3.6962 H       1  PRO1        0.0281
     54 HG2         3.5858    1.3752    3.5121 H       1  PRO1        0.0281
     55 HD1         2.1005    2.5462    2.0883 H       1  PRO1        0.0465
     56 HD2         3.3455    3.7190    1.5827 H       1  PRO1        0.0465
     57 HA          3.5592   -2.8312    0.9558 H       2  VAL2        0.0597
     58 HA          1.6532    3.5773   -0.0923 H       5  ASP5        0.0598
     59 HB          4.6760   -2.9955   -1.9047 H       2  VAL2        0.0318
     60 HA         -0.2069   -2.2801   -1.3602 H       3  LEU3        0.0594
     61 HB1         1.4083    2.3295   -2.9012 H       5  ASP5        0.0348
     62 HB2         2.5485    3.6224   -2.5314 H       5  ASP5        0.0348
     63 HA         -1.6636    0.7309    1.6351 H       4  TRP4        0.0598
     64 HB1        -1.0023   -3.9331    1.1081 H       3  LEU3        0.0290
     65 HB2        -0.6764   -4.6129   -0.4751 H       3  LEU3        0.0290
     66 HG         -2.9325   -2.6535    0.1860 H       3  LEU3        0.0296
     67 HB1        -2.4436    2.0900   -0.9956 H       4  TRP4        0.0337
     68 HB2        -3.0385    2.4775    0.6072 H       4  TRP4        0.0337
     69 HG11        3.8543   -5.2235    0.0376 H       2  VAL2        0.0233
     70 HG12        4.6943   -5.4647   -1.5035 H       2  VAL2        0.0233
     71 HG13        3.0536   -4.8202   -1.4919 H       2  VAL2        0.0233
     72 HG21        5.9476   -3.7964    0.7686 H       2  VAL2        0.0233
     73 HG22        6.4654   -2.4590   -0.2738 H       2  VAL2        0.0233
     74 HG23        6.6261   -4.1236   -0.8345 H       2  VAL2        0.0233
     75 HD11       -2.3085   -4.1155   -2.4318 H       3  LEU3        0.0232
     76 HD12       -2.2975   -2.3612   -2.1750 H       3  LEU3        0.0232
     77 HD13       -3.8148   -3.2480   -2.0889 H       3  LEU3        0.0232
     78 HD21       -3.0197   -5.6551   -0.3888 H       3  LEU3        0.0232
     79 HD22       -4.4215   -4.6044   -0.1210 H       3  LEU3        0.0232
     80 HD23       -3.2685   -4.8858    1.1894 H       3  LEU3        0.0232
     81 HD1        -4.4633    1.1282   -2.3829 H       4  TRP4        0.0810
     82 HE3        -3.4999   -0.0597    2.5962 H       4  TRP4        0.0624
     83 HZ2        -7.1091   -2.3462    0.0161 H       4  TRP4        0.0638
     84 HZ3        -4.8551   -1.8276    3.6475 H       4  TRP4        0.0618
     85 HH2        -6.6430   -2.9713    2.3800 H       4  TRP4        0.0618
@<TRIPOS>BOND
     1     1    18    2
     2     2    19    2
     3     3    24    2
     4     4    29    2
     5     5    31    2
     6     6    35   ar
     7     7    35   ar
     8     8    14    1
     9     8    17    1
    10     8    19   am
    11     9    18   am
    12     9    20    1
    13    10    21    1
    14    10    29   am
    15    11    23    1
    16    11    24   am
    17    12    26    1
    18    12    31   am
    19    13    39   ar
    20    13    40   ar
    21    14    15    1
    22    14    18    1
    23    15    16    1
    24    16    17    1
    25    19    21    1
    26    20    22    1
    27    20    24    1
    28    21    25    1
    29    22    32    1
    30    22    33    1
    31    23    27    1
    32    23    31    1
    33    25    35    1
    34    26    29    1
    35    26    30    1
    36    27    28    1
    37    28    36    1
    38    28    37    1
    39    30    34    1
    40    34    38   ar
    41    34    39   ar
    42    38    40   ar
    43    38    41   ar
    44    40    42   ar
    45    41    43   ar
    46    42    44   ar
    47    43    44   ar
    48     9    45    1
    49    10    46    1
    50    11    47    1
    51    12    48    1
    52    13    49    1
    53    14    50    1
    54    15    51    1
    55    15    52    1
    56    16    53    1
    57    16    54    1
    58    17    55    1
    59    17    56    1
    60    20    57    1
    61    21    58    1
    62    22    59    1
    63    23    60    1
    64    25    61    1
    65    25    62    1
    66    26    63    1
    67    27    64    1
    68    27    65    1
    69    28    66    1
    70    30    67    1
    71    30    68    1
    72    32    69    1
    73    32    70    1
    74    32    71    1
    75    33    72    1
    76    33    73    1
    77    33    74    1
    78    36    75    1
    79    36    76    1
    80    36    77    1
    81    37    78    1
    82    37    79    1
    83    37    80    1
    84    39    81    1
    85    41    82    1
    86    42    83    1
    87    43    84    1
    88    44    85    1
@<TRIPOS>MOLECULE
16219006
 85 88 0 0 0
SMALL
GASTEIGER

@<TRIPOS>ATOM
      1 O           4.2002   -0.9990    2.2622 O.2     1  PRO1       -0.2738
      2 O           3.3213    1.1608   -1.4114 O.2     5  ASP5       -0.2735
      3 O           2.1455   -2.2679   -1.8987 O.2     2  VAL2       -0.2738
      4 O          -0.3587    2.7952    1.3970 O.2     4  TRP4       -0.2738
      5 O          -0.2094   -1.1004    1.7478 O.2     3  LEU3       -0.2738
      6 OD1        -0.6785    3.6462   -2.6514 O.co2   5  ASP5       -0.5497
      7 OD2         0.5840    5.4217   -1.9414 O.co2   5  ASP5       -0.5497
      8 N           3.4488    1.8432    0.7384 N.am    1  PRO1       -0.2884
      9 N           4.1644   -1.1241   -0.0227 N.am    2  VAL2       -0.3022
     10 N           0.5000    1.8196   -0.4997 N.am    5  ASP5       -0.3021
     11 N           1.3158   -2.7557    0.1826 N.am    3  LEU3       -0.3025
     12 N          -1.1717   -0.3212   -0.1806 N.am    4  TRP4       -0.3022
     13 NE1        -5.6855   -0.5850    0.0292 N.ar    4  TRP4       -0.3604
     14 CA          4.6521    1.0546    0.9957 C.3     1  PRO1        0.1023
     15 CB          5.2341    1.6711    2.2685 C.3     1  PRO1       -0.0243
     16 CG          4.0082    2.2052    2.9997 C.3     1  PRO1       -0.0350
     17 CD          3.1124    2.6912    1.8706 C.3     1  PRO1        0.0156
     18 C           4.3153   -0.4462    1.1690 C.2     1  PRO1        0.2342
     19 C           2.8806    1.8961   -0.5181 C.2     5  ASP5        0.2369
     20 CA          3.7439   -2.5221   -0.0790 C.3     2  VAL2        0.1017
     21 CA          1.6046    2.7507   -0.7134 C.3     5  ASP5        0.1047
     22 CB          4.7384   -3.3732   -0.9014 C.3     2  VAL2       -0.0197
     23 CA         -0.0727   -2.5265   -0.1995 C.3     3  LEU3        0.0996
     24 C           2.3392   -2.5124   -0.7102 C.2     2  VAL2        0.2342
     25 CB          1.5841    3.3049   -2.1309 C.3     5  ASP5        0.0138
     26 CA         -1.5967    0.9492    0.4285 C.3     4  TRP4        0.1034
     27 CB         -1.0028   -3.6676    0.2387 C.3     3  LEU3       -0.0236
     28 CG         -0.8790   -4.9658   -0.5865 C.3     3  LEU3       -0.0446
     29 C          -0.4114    1.9304    0.5259 C.2     4  TRP4        0.2343
     30 CB         -2.7403    1.6049   -0.3604 C.3     4  TRP4        0.0013
     31 C          -0.4809   -1.2507    0.5558 C.2     3  LEU3        0.2340
     32 CG1         4.2281   -4.8049   -1.1059 C.3     2  VAL2       -0.0605
     33 CG2         6.1050   -3.4338   -0.2076 C.3     2  VAL2       -0.0605
     34 CG         -3.9398    0.7030   -0.4851 C.ar    4  TRP4       -0.0201
     35 CG          0.3768    4.2142   -2.2425 C.2     5  ASP5        0.0440
     36 CD1         0.4354   -5.7072   -0.3445 C.3     3  LEU3       -0.0626
     37 CD2        -2.0452   -5.9009   -0.2506 C.3     3  LEU3       -0.0626
     38 CD2        -4.4627    0.1300   -1.6899 C.ar    4  TRP4        0.0029
     39 CD1        -4.7339    0.2473    0.5503 C.ar    4  TRP4        0.0060
     40 CE2        -5.5411   -0.6816   -1.3346 C.ar    4  TRP4        0.0467
     41 CE3        -4.1129    0.2216   -3.0530 C.ar    4  TRP4       -0.0523
     42 CZ2        -6.2804   -1.4151   -2.2709 C.ar    4  TRP4       -0.0378
     43 CZ3        -4.8448   -0.5008   -4.0030 C.ar    4  TRP4       -0.0611
     44 CH2        -5.9104   -1.3093   -3.6147 C.ar    4  TRP4       -0.0598
     45 H           3.9728   -0.5421   -0.8463 H       2  VAL2        0.1495
     46 H           0.3101    1.1691   -1.2489 H       5  ASP5        0.1495
     47 H           1.5222   -2.5840    1.1652 H       3  LEU3        0.1495
     48 H          -1.3032   -0.4411   -1.1778 H       4  TRP4        0.1495
     49 HE1        -6.3946   -1.0637    0.5652 H       4  TRP4        0.1653
     50 HA          5.3595    1.1546    0.1637 H       1  PRO1        0.0597
     51 HB1         5.8900    2.5096    2.0030 H       1  PRO1        0.0288
     52 HB2         5.8130    0.9705    2.8774 H       1  PRO1        0.0288
     53 HG1         4.2520    2.9980    3.7123 H       1  PRO1        0.0281
     54 HG2         3.5158    1.3941    3.5484 H       1  PRO1        0.0281
     55 HD1         2.0555    2.6089    2.1249 H       1  PRO1        0.0465
     56 HD2         3.3428    3.7275    1.5995 H       1  PRO1        0.0465
     57 HA          3.6774   -2.9326    0.9356 H       2  VAL2        0.0597
     58 HA          1.5630    3.5648    0.0152 H       5  ASP5        0.0598
     59 HB          4.8808   -2.9204   -1.8913 H       2  VAL2        0.0318
     60 HA         -0.1574   -2.3602   -1.2785 H       3  LEU3        0.0594
     61 HB1         1.5274    2.5109   -2.8858 H       5  ASP5        0.0348
     62 HB2         2.4965    3.8790   -2.3344 H       5  ASP5        0.0348
     63 HA         -1.9153    0.7314    1.4559 H       4  TRP4        0.0598
     64 HB1        -2.0378   -3.3076    0.1553 H       3  LEU3        0.0290
     65 HB2        -0.8471   -3.8923    1.3027 H       3  LEU3        0.0290
     66 HG         -0.9461   -4.7176   -1.6531 H       3  LEU3        0.0296
     67 HB1        -2.3888    1.8882   -1.3593 H       4  TRP4        0.0337
     68 HB2        -3.0459    2.5375    0.1310 H       4  TRP4        0.0337
     69 HG11        3.9511   -5.2694   -0.1531 H       2  VAL2        0.0233
     70 HG12        4.9921   -5.4323   -1.5775 H       2  VAL2        0.0233
     71 HG13        3.3538   -4.8210   -1.7631 H       2  VAL2        0.0233
     72 HG21        6.0204   -3.8680    0.7948 H       2  VAL2        0.0233
     73 HG22        6.5484   -2.4381   -0.1114 H       2  VAL2        0.0233
     74 HG23        6.8051   -4.0508   -0.7817 H       2  VAL2        0.0233
     75 HD11        0.6282   -5.8440    0.7248 H       3  LEU3        0.0232
     76 HD12        1.2762   -5.1669   -0.7800 H       3  LEU3        0.0232
     77 HD13        0.4222   -6.6968   -0.8142 H       3  LEU3        0.0232
     78 HD21       -2.0351   -6.1829    0.8079 H       3  LEU3        0.0232
     79 HD22       -1.9928   -6.8187   -0.8462 H       3  LEU3        0.0232
     80 HD23       -3.0052   -5.4209   -0.4668 H       3  LEU3        0.0232
     81 HD1        -4.6877    0.4367    1.6146 H       4  TRP4        0.0810
     82 HE3        -3.2916    0.8611   -3.3701 H       4  TRP4        0.0624
     83 HZ2        -7.1148   -2.0395   -1.9711 H       4  TRP4        0.0638
     84 HZ3        -4.5777   -0.4196   -5.0537 H       4  TRP4        0.0618
     85 HH2        -6.4674   -1.8600   -4.3687 H       4  TRP4        0.0618
@<TRIPOS>BOND
     1     1    18    2
     2     2    19    2
     3     3    24    2
     4     4    29    2
     5     5    31    2
     6     6    35   ar
     7     7    35   ar
     8     8    14    1
     9     8    17    1
    10     8    19   am
    11     9    18   am
    12     9    20    1
    13    10    21    1
    14    10    29   am
    15    11    23    1
    16    11    24   am
    17    12    26    1
    18    12    31   am
    19    13    39   ar
    20    13    40   ar
    21    14    15    1
    22    14    18    1
    23    15    16    1
    24    16    17    1
    25    19    21    1
    26    20    22    1
    27    20    24    1
    28    21    25    1
    29    22    32    1
    30    22    33    1
    31    23    27    1
    32    23    31    1
    33    25    35    1
    34    26    29    1
    35    26    30    1
    36    27    28    1
    37    28    36    1
    38    28    37    1
    39    30    34    1
    40    34    38   ar
    41    34    39   ar
    42    38    40   ar
    43    38    41   ar
    44    40    42   ar
    45    41    43   ar
    46    42    44   ar
    47    43    44   ar
    48     9    45    1
    49    10    46    1
    50    11    47    1
    51    12    48    1
    52    13    49    1
    53    14    50    1
    54    15    51    1
    55    15    52    1
    56    16    53    1
    57    16    54    1
    58    17    55    1
    59    17    56    1
    60    20    57    1
    61    21    58    1
    62    22    59    1
    63    23    60    1
    64    25    61    1
    65    25    62    1
    66    26    63    1
    67    27    64    1
    68    27    65    1
    69    28    66    1
    70    30    67    1
    71    30    68    1
    72    32    69    1
    73    32    70    1
    74    32    71    1
    75    33    72    1
    76    33    73    1
    77    33    74    1
    78    36    75    1
    79    36    76    1
    80    36    77    1
    81    37    78    1
    82    37    79    1
    83    37    80    1
    84    39    81    1
    85    41    82    1
    86    42    83    1
    87    43    84    1
    88    44    85    1
@<TRIPOS>MOLECULE
16219006
 85 88 0 0 0
SMALL
GASTEIGER

@<TRIPOS>ATOM
      1 O           4.2042   -0.9680    2.2467 O.2     1  PRO1       -0.2738
      2 O           3.0868    1.0637   -1.3070 O.2     5  ASP5       -0.2735
      3 O           1.9393   -1.9514   -1.8012 O.2     2  VAL2       -0.2738
      4 O          -0.5542    2.9015    1.2439 O.2     4  TRP4       -0.2738
      5 O          -0.7058   -1.2577    1.7843 O.2     3  LEU3       -0.2738
      6 OD1         3.2524    5.0530   -0.8202 O.co2   5  ASP5       -0.5497
      7 OD2         3.7040    4.4491   -2.9704 O.co2   5  ASP5       -0.5497
      8 N           3.4494    1.8623    0.7798 N.am    1  PRO1       -0.2884
      9 N           4.1362   -1.0964   -0.0398 N.am    2  VAL2       -0.3022
     10 N           0.4398    2.0215   -0.6291 N.am    5  ASP5       -0.3021
     11 N           1.1863   -2.7866    0.1849 N.am    3  LEU3       -0.3025
     12 N          -1.1267   -0.3148   -0.2699 N.am    4  TRP4       -0.3022
     13 NE1        -2.0201    1.6552   -4.1577 N.ar    4  TRP4       -0.3604
     14 CA          4.6663    1.0738    0.9659 C.3     1  PRO1        0.1023
     15 CB          5.3264    1.6819    2.2065 C.3     1  PRO1       -0.0243
     16 CG          4.1581    2.2880    2.9758 C.3     1  PRO1       -0.0350
     17 CD          3.2555    2.8046    1.8682 C.3     1  PRO1        0.0156
     18 C           4.3255   -0.4224    1.1515 C.2     1  PRO1        0.2342
     19 C           2.8142    1.9086   -0.4412 C.2     5  ASP5        0.2369
     20 CA          3.6100   -2.4533   -0.0869 C.3     2  VAL2        0.1017
     21 CA          1.6300    2.8857   -0.6287 C.3     5  ASP5        0.1047
     22 CB          4.5402   -3.4069   -0.8692 C.3     2  VAL2       -0.0197
     23 CA         -0.2054   -2.5805   -0.1863 C.3     3  LEU3        0.0996
     24 C           2.1856   -2.3706   -0.6719 C.2     2  VAL2        0.2342
     25 CB          1.7527    3.6132   -1.9571 C.3     5  ASP5        0.0138
     26 CA         -1.6103    0.9659    0.2567 C.3     4  TRP4        0.1034
     27 CB         -1.0759   -3.7844    0.1910 C.3     3  LEU3       -0.0236
     28 CG         -0.7271   -5.0828   -0.5665 C.3     3  LEU3       -0.0446
     29 C          -0.4989    2.0300    0.3766 C.2     4  TRP4        0.2343
     30 CB         -2.8067    1.4940   -0.5526 C.3     4  TRP4        0.0013
     31 C          -0.6995   -1.3278    0.5570 C.2     3  LEU3        0.2340
     32 CG1         4.7962   -3.0001   -2.3233 C.3     2  VAL2       -0.0605
     33 CG2         4.0256   -4.8493   -0.8142 C.3     2  VAL2       -0.0605
     34 CG         -2.5173    1.8268   -1.9895 C.ar    4  TRP4       -0.0201
     35 CG          3.0234    4.4531   -1.9082 C.2     5  ASP5        0.0440
     36 CD1        -1.6720   -6.2036   -0.1269 C.3     3  LEU3       -0.0626
     37 CD2        -0.7970   -4.9198   -2.0868 C.3     3  LEU3       -0.0626
     38 CD2        -2.4202    3.1433   -2.5502 C.ar    4  TRP4        0.0029
     39 CD1        -2.3092    0.9373   -3.0279 C.ar    4  TRP4        0.0060
     40 CE2        -2.1143    3.0018   -3.9032 C.ar    4  TRP4        0.0467
     41 CE3        -2.5524    4.4460   -2.0269 C.ar    4  TRP4       -0.0523
     42 CZ2        -1.9336    4.0942   -4.7598 C.ar    4  TRP4       -0.0378
     43 CZ3        -2.3856    5.5499   -2.8710 C.ar    4  TRP4       -0.0611
     44 CH2        -2.0796    5.3736   -4.2178 C.ar    4  TRP4       -0.0598
     45 H           3.9173   -0.4921   -0.8425 H       2  VAL2        0.1495
     46 H           0.4679    1.2596   -1.2910 H       5  ASP5        0.1495
     47 H           1.3917   -2.7501    1.1803 H       3  LEU3        0.1495
     48 H          -0.8303   -0.3363   -1.2378 H       4  TRP4        0.1495
     49 HE1        -1.7757    1.2630   -5.0563 H       4  TRP4        0.1653
     50 HA          5.3233    1.1769    0.0937 H       1  PRO1        0.0597
     51 HB1         6.0103    2.4836    1.9011 H       1  PRO1        0.0288
     52 HB2         5.8949    0.9647    2.8057 H       1  PRO1        0.0288
     53 HG1         4.4668    3.0757    3.6684 H       1  PRO1        0.0281
     54 HG2         3.6430    1.5087    3.5496 H       1  PRO1        0.0281
     55 HD1         2.2067    2.8414    2.1730 H       1  PRO1        0.0465
     56 HD2         3.5744    3.7956    1.5315 H       1  PRO1        0.0465
     57 HA          3.5383   -2.8350    0.9389 H       2  VAL2        0.0597
     58 HA          1.5471    3.5951    0.1956 H       5  ASP5        0.0598
     59 HB          5.5154   -3.3913   -0.3630 H       2  VAL2        0.0318
     60 HA         -0.2894   -2.3975   -1.2617 H       3  LEU3        0.0594
     61 HB1         0.8938    4.2731   -2.1223 H       5  ASP5        0.0348
     62 HB2         1.7924    2.9102   -2.7986 H       5  ASP5        0.0348
     63 HA         -1.9573    0.7821    1.2820 H       4  TRP4        0.0598
     64 HB1        -2.1286   -3.5299    0.0080 H       3  LEU3        0.0290
     65 HB2        -0.9928   -3.9730    1.2701 H       3  LEU3        0.0290
     66 HG          0.2946   -5.3844   -0.3032 H       3  LEU3        0.0296
     67 HB1        -3.2104    2.3819   -0.0503 H       4  TRP4        0.0337
     68 HB2        -3.6090    0.7442   -0.5338 H       4  TRP4        0.0337
     69 HG11        3.8969   -3.0923   -2.9393 H       2  VAL2        0.0233
     70 HG12        5.5601   -3.6483   -2.7678 H       2  VAL2        0.0233
     71 HG13        5.1608   -1.9710   -2.3941 H       2  VAL2        0.0233
     72 HG21        3.0743   -4.9595   -1.3455 H       2  VAL2        0.0233
     73 HG22        3.8769   -5.1718    0.2215 H       2  VAL2        0.0233
     74 HG23        4.7459   -5.5342   -1.2748 H       2  VAL2        0.0233
     75 HD11       -2.7113   -5.9669   -0.3783 H       3  LEU3        0.0232
     76 HD12       -1.6112   -6.3627    0.9546 H       3  LEU3        0.0232
     77 HD13       -1.4115   -7.1469   -0.6182 H       3  LEU3        0.0232
     78 HD21       -1.7626   -4.5072   -2.3982 H       3  LEU3        0.0232
     79 HD22       -0.6628   -5.8841   -2.5891 H       3  LEU3        0.0232
     80 HD23       -0.0064   -4.2573   -2.4540 H       3  LEU3        0.0232
     81 HD1        -2.3163   -0.1433   -3.0596 H       4  TRP4        0.0810
     82 HE3        -2.7636    4.6016   -0.9735 H       4  TRP4        0.0624
     83 HZ2        -1.6706    3.9608   -5.8034 H       4  TRP4        0.0638
     84 HZ3        -2.4732    6.5539   -2.4631 H       4  TRP4        0.0618
     85 HH2        -1.9296    6.2438   -4.8521 H       4  TRP4        0.0618
@<TRIPOS>BOND
     1     1    18    2
     2     2    19    2
     3     3    24    2
     4     4    29    2
     5     5    31    2
     6     6    35   ar
     7     7    35   ar
     8     8    14    1
     9     8    17    1
    10     8    19   am
    11     9    18   am
    12     9    20    1
    13    10    21    1
    14    10    29   am
    15    11    23    1
    16    11    24   am
    17    12    26    1
    18    12    31   am
    19    13    39   ar
    20    13    40   ar
    21    14    15    1
    22    14    18    1
    23    15    16    1
    24    16    17    1
    25    19    21    1
    26    20    22    1
    27    20    24    1
    28    21    25    1
    29    22    32    1
    30    22    33    1
    31    23    27    1
    32    23    31    1
    33    25    35    1
    34    26    29    1
    35    26    30    1
    36    27    28    1
    37    28    36    1
    38    28    37    1
    39    30    34    1
    40    34    38   ar
    41    34    39   ar
    42    38    40   ar
    43    38    41   ar
    44    40    42   ar
    45    41    43   ar
    46    42    44   ar
    47    43    44   ar
    48     9    45    1
    49    10    46    1
    50    11    47    1
    51    12    48    1
    52    13    49    1
    53    14    50    1
    54    15    51    1
    55    15    52    1
    56    16    53    1
    57    16    54    1
    58    17    55    1
    59    17    56    1
    60    20    57    1
    61    21    58    1
    62    22    59    1
    63    23    60    1
    64    25    61    1
    65    25    62    1
    66    26    63    1
    67    27    64    1
    68    27    65    1
    69    28    66    1
    70    30    67    1
    71    30    68    1
    72    32    69    1
    73    32    70    1
    74    32    71    1
    75    33    72    1
    76    33    73    1
    77    33    74    1
    78    36    75    1
    79    36    76    1
    80    36    77    1
    81    37    78    1
    82    37    79    1
    83    37    80    1
    84    39    81    1
    85    41    82    1
    86    42    83    1
    87    43    84    1
    88    44    85    1
@<TRIPOS>MOLECULE
16219006
 85 88 0 0 0
SMALL
GASTEIGER

@<TRIPOS>ATOM
      1 O           4.1830   -1.0345    2.2461 O.2     1  PRO1       -0.2738
      2 O           2.9503    0.8961   -1.2855 O.2     5  ASP5       -0.2735
      3 O           2.1451   -2.5121   -1.9097 O.2     2  VAL2       -0.2738
      4 O          -0.5053    2.9271    1.2527 O.2     4  TRP4       -0.2738
      5 O          -0.1259   -0.9759    1.7251 O.2     3  LEU3       -0.2738
      6 OD1         3.8465    4.1315   -2.8953 O.co2   5  ASP5       -0.5497
      7 OD2         3.1076    5.1001   -0.9688 O.co2   5  ASP5       -0.5497
      8 N           3.3906    1.7959    0.7476 N.am    1  PRO1       -0.2884
      9 N           4.1505   -1.1869   -0.0376 N.am    2  VAL2       -0.3022
     10 N           0.3653    2.0042   -0.6664 N.am    5  ASP5       -0.3021
     11 N           1.3508   -2.7366    0.2264 N.am    3  LEU3       -0.3025
     12 N          -1.1263   -0.2883   -0.2167 N.am    4  TRP4       -0.3022
     13 NE1        -5.5144   -0.7452   -1.3565 N.ar    4  TRP4       -0.3604
     14 CA          4.6058    1.0075    0.9438 C.3     1  PRO1        0.1023
     15 CB          5.2737    1.6370    2.1706 C.3     1  PRO1       -0.0243
     16 CG          4.1148    2.2772    2.9250 C.3     1  PRO1       -0.0350
     17 CD          3.2199    2.7780    1.8044 C.3     1  PRO1        0.0156
     18 C           4.2960   -0.4951    1.1475 C.2     1  PRO1        0.2342
     19 C           2.7347    1.7990   -0.4626 C.2     5  ASP5        0.2369
     20 CA          3.7766   -2.5957   -0.0958 C.3     2  VAL2        0.1017
     21 CA          1.5918    2.8181   -0.6905 C.3     5  ASP5        0.1047
     22 CB          4.7874   -3.4019   -0.9409 C.3     2  VAL2       -0.0197
     23 CA         -0.0335   -2.4973   -0.1548 C.3     3  LEU3        0.0996
     24 C           2.3626   -2.6275   -0.7053 C.2     2  VAL2        0.2342
     25 CB          1.7484    3.4934   -2.0422 C.3     5  ASP5        0.0138
     26 CA         -1.6062    0.9668    0.3723 C.3     4  TRP4        0.1034
     27 CB         -0.9807   -3.6107    0.3164 C.3     3  LEU3       -0.0236
     28 CG         -0.9223   -4.9064   -0.5217 C.3     3  LEU3       -0.0446
     29 C          -0.4949    2.0295    0.4123 C.2     4  TRP4        0.2343
     30 CB         -2.7982    1.5532   -0.3975 C.3     4  TRP4        0.0013
     31 C          -0.4187   -1.1854    0.5485 C.2     3  LEU3        0.2340
     32 CG1         4.3362   -4.8558   -1.1272 C.3     2  VAL2       -0.0605
     33 CG2         6.1726   -3.3956   -0.2819 C.3     2  VAL2       -0.0605
     34 CG         -3.9623    0.6112   -0.5074 C.ar    4  TRP4       -0.0201
     35 CG          3.0227    4.3232   -1.9587 C.2     5  ASP5        0.0440
     36 CD1         0.3700   -5.6971   -0.3159 C.3     3  LEU3       -0.0626
     37 CD2        -2.1153   -5.8018   -0.1710 C.3     3  LEU3       -0.0626
     38 CD2        -4.7707    0.1068    0.5634 C.ar    4  TRP4        0.0029
     39 CD1        -4.4588    0.0646   -1.6752 C.ar    4  TRP4        0.0060
     40 CE2        -5.7216   -0.7462    0.0023 C.ar    4  TRP4        0.0467
     41 CE3        -4.7790    0.2909    1.9617 C.ar    4  TRP4       -0.0523
     42 CZ2        -6.6737   -1.4301    0.7685 C.ar    4  TRP4       -0.0378
     43 CZ3        -5.7205   -0.3885    2.7433 C.ar    4  TRP4       -0.0611
     44 CH2        -6.6526   -1.2372    2.1527 C.ar    4  TRP4       -0.0598
     45 H           3.9166   -0.6064   -0.8524 H       2  VAL2        0.1495
     46 H           0.4255    1.1401   -1.1913 H       5  ASP5        0.1495
     47 H           1.5885   -2.4894    1.1866 H       3  LEU3        0.1495
     48 H          -1.3021   -0.4720   -1.1962 H       4  TRP4        0.1495
     49 HE1        -6.0677   -1.2683   -2.0200 H       4  TRP4        0.1653
     50 HA          5.2594    1.1085    0.0681 H       1  PRO1        0.0597
     51 HB1         5.9681    2.4223    1.8463 H       1  PRO1        0.0288
     52 HB2         5.8341    0.9285    2.7874 H       1  PRO1        0.0288
     53 HG1         4.4339    3.0777    3.5980 H       1  PRO1        0.0281
     54 HG2         3.5900    1.5183    3.5171 H       1  PRO1        0.0281
     55 HD1         2.1738    2.8472    2.1120 H       1  PRO1        0.0465
     56 HD2         3.5584    3.7504    1.4320 H       1  PRO1        0.0465
     57 HA          3.7382   -3.0143    0.9171 H       2  VAL2        0.0597
     58 HA          1.5375    3.5572    0.1100 H       5  ASP5        0.0598
     59 HB          4.8836   -2.9459   -1.9350 H       2  VAL2        0.0318
     60 HA         -0.1212   -2.3636   -1.2383 H       3  LEU3        0.0594
     61 HB1         0.8996    4.1531   -2.2544 H       5  ASP5        0.0348
     62 HB2         1.8120    2.7638   -2.8585 H       5  ASP5        0.0348
     63 HA         -1.8813    0.7596    1.4130 H       4  TRP4        0.0598
     64 HB1        -2.0076   -3.2221    0.2710 H       3  LEU3        0.0290
     65 HB2        -0.7933   -3.8447    1.3731 H       3  LEU3        0.0290
     66 HG         -1.0035   -4.6464   -1.5846 H       3  LEU3        0.0296
     67 HB1        -2.4793    1.8463   -1.4071 H       4  TRP4        0.0337
     68 HB2        -3.1371    2.4764    0.0907 H       4  TRP4        0.0337
     69 HG11        4.1320   -5.3356   -0.1639 H       2  VAL2        0.0233
     70 HG12        5.1063   -5.4414   -1.6408 H       2  VAL2        0.0233
     71 HG13        3.4298   -4.9161   -1.7370 H       2  VAL2        0.0233
     72 HG21        6.1333   -3.8278    0.7243 H       2  VAL2        0.0233
     73 HG22        6.5713   -2.3797   -0.2004 H       2  VAL2        0.0233
     74 HG23        6.8861   -3.9813   -0.8715 H       2  VAL2        0.0233
     75 HD11        0.5708   -5.8662    0.7473 H       3  LEU3        0.0232
     76 HD12        1.2261   -5.1788   -0.7500 H       3  LEU3        0.0232
     77 HD13        0.3139   -6.6746   -0.8076 H       3  LEU3        0.0232
     78 HD21       -2.0934   -6.0977    0.8833 H       3  LEU3        0.0232
     79 HD22       -2.1103   -6.7131   -0.7791 H       3  LEU3        0.0232
     80 HD23       -3.0612   -5.2839   -0.3607 H       3  LEU3        0.0232
     81 HD1        -4.1532    0.1882   -2.7063 H       4  TRP4        0.0810
     82 HE3        -4.0592    0.9506    2.4383 H       4  TRP4        0.0624
     83 HZ2        -7.4026   -2.0895    0.3106 H       4  TRP4        0.0638
     84 HZ3        -5.7182   -0.2501    3.8217 H       4  TRP4        0.0618
     85 HH2        -7.3755   -1.7566    2.7771 H       4  TRP4        0.0618
@<TRIPOS>BOND
     1     1    18    2
     2     2    19    2
     3     3    24    2
     4     4    29    2
     5     5    31    2
     6     6    35   ar
     7     7    35   ar
     8     8    14    1
     9     8    17    1
    10     8    19   am
    11     9    18   am
    12     9    20    1
    13    10    21    1
    14    10    29   am
    15    11    23    1
    16    11    24   am
    17    12    26    1
    18    12    31   am
    19    13    39   ar
    20    13    40   ar
    21    14    15    1
    22    14    18    1
    23    15    16    1
    24    16    17    1
    25    19    21    1
    26    20    22    1
    27    20    24    1
    28    21    25    1
    29    22    32    1
    30    22    33    1
    31    23    27    1
    32    23    31    1
    33    25    35    1
    34    26    29    1
    35    26    30    1
    36    27    28    1
    37    28    36    1
    38    28    37    1
    39    30    34    1
    40    34    38   ar
    41    34    39   ar
    42    38    40   ar
    43    38    41   ar
    44    40    42   ar
    45    41    43   ar
    46    42    44   ar
    47    43    44   ar
    48     9    45    1
    49    10    46    1
    50    11    47    1
    51    12    48    1
    52    13    49    1
    53    14    50    1
    54    15    51    1
    55    15    52    1
    56    16    53    1
    57    16    54    1
    58    17    55    1
    59    17    56    1
    60    20    57    1
    61    21    58    1
    62    22    59    1
    63    23    60    1
    64    25    61    1
    65    25    62    1
    66    26    63    1
    67    27    64    1
    68    27    65    1
    69    28    66    1
    70    30    67    1
    71    30    68    1
    72    32    69    1
    73    32    70    1
    74    32    71    1
    75    33    72    1
    76    33    73    1
    77    33    74    1
    78    36    75    1
    79    36    76    1
    80    36    77    1
    81    37    78    1
    82    37    79    1
    83    37    80    1
    84    39    81    1
    85    41    82    1
    86    42    83    1
    87    43    84    1
    88    44    85    1
@<TRIPOS>MOLECULE
16219006
 85 88 0 0 0
SMALL
GASTEIGER

@<TRIPOS>ATOM
      1 O           4.1806   -1.1068    2.2670 O.2     1  PRO1       -0.2738
      2 O           2.9994    0.8823   -1.2951 O.2     5  ASP5       -0.2735
      3 O           2.0345   -2.4616   -1.8887 O.2     2  VAL2       -0.2738
      4 O          -0.2209    2.6901    1.4861 O.2     4  TRP4       -0.2738
      5 O          -0.6100   -1.1185    1.7916 O.2     3  LEU3       -0.2738
      6 OD1         3.8422    4.3086   -1.2250 O.co2   5  ASP5       -0.5497
      7 OD2         2.5173    5.6527   -2.5046 O.co2   5  ASP5       -0.5497
      8 N           3.4398    1.7192    0.7702 N.am    1  PRO1       -0.2884
      9 N           4.0849   -1.2671   -0.0143 N.am    2  VAL2       -0.3022
     10 N           0.4221    2.0055   -0.6073 N.am    5  ASP5       -0.3021
     11 N           1.1796   -2.6534    0.2237 N.am    3  LEU3       -0.3025
     12 N          -1.2606   -0.2219   -0.2216 N.am    4  TRP4       -0.3022
     13 NE1        -3.5387    5.1297    0.6421 N.ar    4  TRP4       -0.3604
     14 CA          4.6445    0.9115    0.9459 C.3     1  PRO1        0.1023
     15 CB          5.3494    1.5297    2.1570 C.3     1  PRO1       -0.0243
     16 CG          4.2203    2.1976    2.9309 C.3     1  PRO1       -0.0350
     17 CD          3.3148    2.7103    1.8250 C.3     1  PRO1        0.0156
     18 C           4.2896   -0.5771    1.1631 C.2     1  PRO1        0.2342
     19 C           2.7961    1.7683   -0.4501 C.2     5  ASP5        0.2369
     20 CA          3.6207   -2.6483   -0.0477 C.3     2  VAL2        0.1017
     21 CA          1.6601    2.8029   -0.6478 C.3     5  ASP5        0.1047
     22 CB          4.5716   -3.5423   -0.8744 C.3     2  VAL2       -0.0197
     23 CA         -0.1967   -2.4362   -0.2008 C.3     3  LEU3        0.0996
     24 C           2.2174   -2.5980   -0.6806 C.2     2  VAL2        0.2342
     25 CB          1.7611    3.4892   -2.0008 C.3     5  ASP5        0.0138
     26 CA         -1.6475    1.0765    0.3578 C.3     4  TRP4        0.1034
     27 CB         -1.0893   -3.6424    0.1154 C.3     3  LEU3       -0.0236
     28 CG         -0.7147   -4.9386   -0.6335 C.3     3  LEU3       -0.0446
     29 C          -0.3906    1.9644    0.5083 C.2     4  TRP4        0.2343
     30 CB         -2.6883    1.7525   -0.5509 C.3     4  TRP4        0.0013
     31 C          -0.7048   -1.2053    0.5695 C.2     3  LEU3        0.2340
     32 CG1         4.0428   -4.9800   -0.9623 C.3     2  VAL2       -0.0605
     33 CG2         5.9785   -3.5679   -0.2652 C.3     2  VAL2       -0.0605
     34 CG         -3.2938    3.0047    0.0049 C.ar    4  TRP4       -0.0201
     35 CG          2.8116    4.5847   -1.8982 C.2     5  ASP5        0.0440
     36 CD1        -1.6384   -6.0758   -0.1869 C.3     3  LEU3       -0.0626
     37 CD2        -0.7932   -4.7876   -2.1539 C.3     3  LEU3       -0.0626
     38 CD2        -4.6142    3.1803    0.5351 C.ar    4  TRP4        0.0029
     39 CD1        -2.6781    4.2403    0.0638 C.ar    4  TRP4        0.0060
     40 CE2        -4.7381    4.5178    0.9173 C.ar    4  TRP4        0.0467
     41 CE3        -5.7236    2.3284    0.7206 C.ar    4  TRP4       -0.0523
     42 CZ2        -5.9100    5.0453    1.4726 C.ar    4  TRP4       -0.0378
     43 CZ3        -6.9062    2.8414    1.2672 C.ar    4  TRP4       -0.0611
     44 CH2        -6.9958    4.1809    1.6369 C.ar    4  TRP4       -0.0598
     45 H           3.8725   -0.6799   -0.8299 H       2  VAL2        0.1495
     46 H           0.4043    1.2290   -1.2520 H       5  ASP5        0.1495
     47 H           1.3905   -2.4645    1.2021 H       3  LEU3        0.1495
     48 H          -1.1023   -0.2672   -1.2208 H       4  TRP4        0.1495
     49 HE1        -3.3246    6.0995    0.8291 H       4  TRP4        0.1653
     50 HA          5.2840    0.9904    0.0579 H       1  PRO1        0.0597
     51 HB1         6.0543    2.2986    1.8167 H       1  PRO1        0.0288
     52 HB2         5.9056    0.8110    2.7656 H       1  PRO1        0.0288
     53 HG1         4.5692    2.9958    3.5922 H       1  PRO1        0.0281
     54 HG2         3.6911    1.4540    3.5386 H       1  PRO1        0.0281
     55 HD1         2.2793    2.8055    2.1562 H       1  PRO1        0.0465
     56 HD2         3.6649    3.6748    1.4426 H       1  PRO1        0.0465
     57 HA          3.5438   -3.0441    0.9717 H       2  VAL2        0.0597
     58 HA          1.6325    3.5446    0.1529 H       5  ASP5        0.0598
     59 HB          4.6547   -3.1474   -1.8954 H       2  VAL2        0.0318
     60 HA         -0.2320   -2.2160   -1.2717 H       3  LEU3        0.0594
     61 HB1         0.7967    3.9335   -2.2768 H       5  ASP5        0.0348
     62 HB2         2.0457    2.7980   -2.8022 H       5  ASP5        0.0348
     63 HA         -2.0561    0.8994    1.3601 H       4  TRP4        0.0598
     64 HB1        -2.1316   -3.3818   -0.1128 H       3  LEU3        0.0290
     65 HB2        -1.0578   -3.8406    1.1956 H       3  LEU3        0.0290
     66 HG          0.3118   -5.2214   -0.3688 H       3  LEU3        0.0296
     67 HB1        -3.4902    1.0336   -0.7630 H       4  TRP4        0.0337
     68 HB2        -2.2424    1.9864   -1.5270 H       4  TRP4        0.0337
     69 HG11        3.9083   -5.4143    0.0345 H       2  VAL2        0.0233
     70 HG12        4.7395   -5.6177   -1.5174 H       2  VAL2        0.0233
     71 HG13        3.0805   -5.0232   -1.4824 H       2  VAL2        0.0233
     72 HG21        5.9563   -3.9319    0.7681 H       2  VAL2        0.0233
     73 HG22        6.4319   -2.5716   -0.2654 H       2  VAL2        0.0233
     74 HG23        6.6386   -4.2270   -0.8399 H       2  VAL2        0.0233
     75 HD11       -2.6826   -5.8602   -0.4379 H       3  LEU3        0.0232
     76 HD12       -1.5733   -6.2294    0.8951 H       3  LEU3        0.0232
     77 HD13       -1.3611   -7.0167   -0.6742 H       3  LEU3        0.0232
     78 HD21       -1.7787   -4.4278   -2.4669 H       3  LEU3        0.0232
     79 HD22       -0.6102   -5.7472   -2.6494 H       3  LEU3        0.0232
     80 HD23       -0.0410   -4.0879   -2.5270 H       3  LEU3        0.0232
     81 HD1        -1.6842    4.5563   -0.2327 H       4  TRP4        0.0810
     82 HE3        -5.6669    1.2822    0.4374 H       4  TRP4        0.0624
     83 HZ2        -5.9779    6.0886    1.7626 H       4  TRP4        0.0638
     84 HZ3        -7.7616    2.1856    1.4041 H       4  TRP4        0.0618
     85 HH2        -7.9215    4.5625    2.0606 H       4  TRP4        0.0618
@<TRIPOS>BOND
     1     1    18    2
     2     2    19    2
     3     3    24    2
     4     4    29    2
     5     5    31    2
     6     6    35   ar
     7     7    35   ar
     8     8    14    1
     9     8    17    1
    10     8    19   am
    11     9    18   am
    12     9    20    1
    13    10    21    1
    14    10    29   am
    15    11    23    1
    16    11    24   am
    17    12    26    1
    18    12    31   am
    19    13    39   ar
    20    13    40   ar
    21    14    15    1
    22    14    18    1
    23    15    16    1
    24    16    17    1
    25    19    21    1
    26    20    22    1
    27    20    24    1
    28    21    25    1
    29    22    32    1
    30    22    33    1
    31    23    27    1
    32    23    31    1
    33    25    35    1
    34    26    29    1
    35    26    30    1
    36    27    28    1
    37    28    36    1
    38    28    37    1
    39    30    34    1
    40    34    38   ar
    41    34    39   ar
    42    38    40   ar
    43    38    41   ar
    44    40    42   ar
    45    41    43   ar
    46    42    44   ar
    47    43    44   ar
    48     9    45    1
    49    10    46    1
    50    11    47    1
    51    12    48    1
    52    13    49    1
    53    14    50    1
    54    15    51    1
    55    15    52    1
    56    16    53    1
    57    16    54    1
    58    17    55    1
    59    17    56    1
    60    20    57    1
    61    21    58    1
    62    22    59    1
    63    23    60    1
    64    25    61    1
    65    25    62    1
    66    26    63    1
    67    27    64    1
    68    27    65    1
    69    28    66    1
    70    30    67    1
    71    30    68    1
    72    32    69    1
    73    32    70    1
    74    32    71    1
    75    33    72    1
    76    33    73    1
    77    33    74    1
    78    36    75    1
    79    36    76    1
    80    36    77    1
    81    37    78    1
    82    37    79    1
    83    37    80    1
    84    39    81    1
    85    41    82    1
    86    42    83    1
    87    43    84    1
    88    44    85    1
@<TRIPOS>MOLECULE
16219006
 85 88 0 0 0
SMALL
GASTEIGER

@<TRIPOS>ATOM
      1 O           4.3478   -1.0415    2.2428 O.2     1  PRO1       -0.2738
      2 O           3.1876    1.0799   -1.3272 O.2     5  ASP5       -0.2735
      3 O           1.8919   -1.8621   -1.7936 O.2     2  VAL2       -0.2738
      4 O          -0.2022    2.6488    1.5153 O.2     4  TRP4       -0.2738
      5 O          -0.7188   -1.2489    1.7796 O.2     3  LEU3       -0.2738
      6 OD1         3.5684    4.6940   -0.9928 O.co2   5  ASP5       -0.5497
      7 OD2         3.1025    4.9905   -3.2050 O.co2   5  ASP5       -0.5497
      8 N           3.5023    1.8158    0.7942 N.am    1  PRO1       -0.2884
      9 N           4.0947   -1.1067   -0.0320 N.am    2  VAL2       -0.3022
     10 N           0.4884    1.9891   -0.5699 N.am    5  ASP5       -0.3021
     11 N           1.1098   -2.7706    0.1471 N.am    3  LEU3       -0.3025
     12 N          -1.2057   -0.2635   -0.2394 N.am    4  TRP4       -0.3022
     13 NE1        -3.4986    5.0898    0.6401 N.ar    4  TRP4       -0.3604
     14 CA          4.7218    1.0306    0.9815 C.3     1  PRO1        0.1023
     15 CB          5.3782    1.6355    2.2251 C.3     1  PRO1       -0.0243
     16 CG          4.2059    2.2288    2.9965 C.3     1  PRO1       -0.0350
     17 CD          3.3046    2.7496    1.8897 C.3     1  PRO1        0.0156
     18 C           4.3789   -0.4659    1.1568 C.2     1  PRO1        0.2342
     19 C           2.8909    1.8938   -0.4402 C.2     5  ASP5        0.2369
     20 CA          3.5410   -2.4505   -0.0836 C.3     2  VAL2        0.1017
     21 CA          1.6864    2.8483   -0.6151 C.3     5  ASP5        0.1047
     22 CB          4.4637   -3.4187   -0.8565 C.3     2  VAL2       -0.0197
     23 CA         -0.2801   -2.5410   -0.2258 C.3     3  LEU3        0.0996
     24 C           2.1229   -2.3312   -0.6806 C.2     2  VAL2        0.2342
     25 CB          1.7395    3.5396   -1.9686 C.3     5  ASP5        0.0138
     26 CA         -1.5923    1.0327    0.3489 C.3     4  TRP4        0.1034
     27 CB         -1.1583   -3.7467    0.1268 C.3     3  LEU3       -0.0236
     28 CG         -0.7771   -5.0478   -0.6112 C.3     3  LEU3       -0.0446
     29 C          -0.3427    1.9262    0.5299 C.2     4  TRP4        0.2343
     30 CB         -2.6249    1.7202   -0.5637 C.3     4  TRP4        0.0013
     31 C          -0.7574   -1.2996    0.5525 C.2     3  LEU3        0.2340
     32 CG1         4.7332   -3.0167   -2.3093 C.3     2  VAL2       -0.0605
     33 CG2         3.9331   -4.8543   -0.8017 C.3     2  VAL2       -0.0605
     34 CG         -3.2404    2.9676   -0.0032 C.ar    4  TRP4       -0.0201
     35 CG          2.9240    4.4923   -2.0578 C.2     5  ASP5        0.0440
     36 CD1        -1.7146   -6.1781   -0.1800 C.3     3  LEU3       -0.0626
     37 CD2        -0.8161   -4.8987   -2.1334 C.3     3  LEU3       -0.0626
     38 CD2        -4.5637    3.1351    0.5247 C.ar    4  TRP4        0.0029
     39 CD1        -2.6319    4.2063    0.0616 C.ar    4  TRP4        0.0060
     40 CE2        -4.6956    4.4710    0.9106 C.ar    4  TRP4        0.0467
     41 CE3        -5.6697    2.2778    0.7053 C.ar    4  TRP4       -0.0523
     42 CZ2        -5.8713    4.9917    1.4650 C.ar    4  TRP4       -0.0378
     43 CZ3        -6.8560    2.7836    1.2523 C.ar    4  TRP4       -0.0611
     44 CH2        -6.9524    4.1215    1.6261 C.ar    4  TRP4       -0.0598
     45 H           3.8785   -0.4870   -0.8233 H       2  VAL2        0.1495
     46 H           0.5010    1.2178   -1.2222 H       5  ASP5        0.1495
     47 H           1.3046   -2.7761    1.1451 H       3  LEU3        0.1495
     48 H          -0.9688   -0.2849   -1.2241 H       4  TRP4        0.1495
     49 HE1        -3.2908    6.0596    0.8320 H       4  TRP4        0.1653
     50 HA          5.3815    1.1354    0.1114 H       1  PRO1        0.0597
     51 HB1         6.0562    2.4441    1.9243 H       1  PRO1        0.0288
     52 HB2         5.9522    0.9200    2.8207 H       1  PRO1        0.0288
     53 HG1         4.5084    3.0128    3.6959 H       1  PRO1        0.0281
     54 HG2         3.6932    1.4422    3.5627 H       1  PRO1        0.0281
     55 HD1         2.2582    2.7823    2.1970 H       1  PRO1        0.0465
     56 HD2         3.6190    3.7453    1.5609 H       1  PRO1        0.0465
     57 HA          3.4505   -2.8290    0.9417 H       2  VAL2        0.0597
     58 HA          1.6266    3.5872    0.1865 H       5  ASP5        0.0598
     59 HB          5.4364   -3.4136   -0.3443 H       2  VAL2        0.0318
     60 HA         -0.3566   -2.3333   -1.2974 H       3  LEU3        0.0594
     61 HB1         0.8218    4.1186   -2.1312 H       5  ASP5        0.0348
     62 HB2         1.8097    2.8100   -2.7853 H       5  ASP5        0.0348
     63 HA         -2.0166    0.8476    1.3432 H       4  TRP4        0.0598
     64 HB1        -2.2054   -3.4971   -0.0906 H       3  LEU3        0.0290
     65 HB2        -1.1091   -3.9305    1.2088 H       3  LEU3        0.0290
     66 HG          0.2421   -5.3348   -0.3236 H       3  LEU3        0.0296
     67 HB1        -3.4248    1.0037   -0.7928 H       4  TRP4        0.0337
     68 HB2        -2.1678    1.9642   -1.5324 H       4  TRP4        0.0337
     69 HG11        3.8348   -3.0935   -2.9287 H       2  VAL2        0.0233
     70 HG12        5.4891   -3.6767   -2.7504 H       2  VAL2        0.0233
     71 HG13        5.1152   -1.9935   -2.3785 H       2  VAL2        0.0233
     72 HG21        2.9838   -4.9549   -1.3378 H       2  VAL2        0.0233
     73 HG22        3.7758   -5.1730    0.2341 H       2  VAL2        0.0233
     74 HG23        4.6488   -5.5478   -1.2566 H       2  VAL2        0.0233
     75 HD11       -2.7526   -5.9586   -0.4525 H       3  LEU3        0.0232
     76 HD12       -1.6716   -6.3277    0.9040 H       3  LEU3        0.0232
     77 HD13       -1.4314   -7.1220   -0.6581 H       3  LEU3        0.0232
     78 HD21       -1.7851   -4.5157   -2.4705 H       3  LEU3        0.0232
     79 HD22       -0.6438   -5.8629   -2.6238 H       3  LEU3        0.0232
     80 HD23       -0.0364   -4.2175   -2.4876 H       3  LEU3        0.0232
     81 HD1        -1.6388    4.5278   -0.2304 H       4  TRP4        0.0810
     82 HE3        -5.6079    1.2328    0.4198 H       4  TRP4        0.0624
     83 HZ2        -5.9448    6.0337    1.7577 H       4  TRP4        0.0638
     84 HZ3        -7.7085    2.1230    1.3863 H       4  TRP4        0.0618
     85 HH2        -7.8808    4.4971    2.0491 H       4  TRP4        0.0618
@<TRIPOS>BOND
     1     1    18    2
     2     2    19    2
     3     3    24    2
     4     4    29    2
     5     5    31    2
     6     6    35   ar
     7     7    35   ar
     8     8    14    1
     9     8    17    1
    10     8    19   am
    11     9    18   am
    12     9    20    1
    13    10    21    1
    14    10    29   am
    15    11    23    1
    16    11    24   am
    17    12    26    1
    18    12    31   am
    19    13    39   ar
    20    13    40   ar
    21    14    15    1
    22    14    18    1
    23    15    16    1
    24    16    17    1
    25    19    21    1
    26    20    22    1
    27    20    24    1
    28    21    25    1
    29    22    32    1
    30    22    33    1
    31    23    27    1
    32    23    31    1
    33    25    35    1
    34    26    29    1
    35    26    30    1
    36    27    28    1
    37    28    36    1
    38    28    37    1
    39    30    34    1
    40    34    38   ar
    41    34    39   ar
    42    38    40   ar
    43    38    41   ar
    44    40    42   ar
    45    41    43   ar
    46    42    44   ar
    47    43    44   ar
    48     9    45    1
    49    10    46    1
    50    11    47    1
    51    12    48    1
    52    13    49    1
    53    14    50    1
    54    15    51    1
    55    15    52    1
    56    16    53    1
    57    16    54    1
    58    17    55    1
    59    17    56    1
    60    20    57    1
    61    21    58    1
    62    22    59    1
    63    23    60    1
    64    25    61    1
    65    25    62    1
    66    26    63    1
    67    27    64    1
    68    27    65    1
    69    28    66    1
    70    30    67    1
    71    30    68    1
    72    32    69    1
    73    32    70    1
    74    32    71    1
    75    33    72    1
    76    33    73    1
    77    33    74    1
    78    36    75    1
    79    36    76    1
    80    36    77    1
    81    37    78    1
    82    37    79    1
    83    37    80    1
    84    39    81    1
    85    41    82    1
    86    42    83    1
    87    43    84    1
    88    44    85    1
@<TRIPOS>MOLECULE
16219006
 85 88 0 0 0
SMALL
GASTEIGER

@<TRIPOS>ATOM
      1 O           4.1774   -1.0451    2.2505 O.2     1  PRO1       -0.2738
      2 O           2.9402    0.9049   -1.2750 O.2     5  ASP5       -0.2735
      3 O           2.1339   -2.5256   -1.9171 O.2     2  VAL2       -0.2738
      4 O          -0.5179    2.9080    1.2845 O.2     4  TRP4       -0.2738
      5 O          -0.1641   -0.9795    1.7189 O.2     3  LEU3       -0.2738
      6 OD1         3.7716    4.2062   -2.9502 O.co2   5  ASP5       -0.5497
      7 OD2         3.1555    5.0355   -0.9172 O.co2   5  ASP5       -0.5497
      8 N           3.3780    1.7896    0.7648 N.am    1  PRO1       -0.2884
      9 N           4.1286   -1.1884   -0.0330 N.am    2  VAL2       -0.3022
     10 N           0.3497    2.0058   -0.6445 N.am    5  ASP5       -0.3021
     11 N           1.3304   -2.7250    0.2182 N.am    3  LEU3       -0.3025
     12 N          -1.1552   -0.2832   -0.2238 N.am    4  TRP4       -0.3022
     13 NE1        -5.7228   -0.6347   -0.0031 N.ar    4  TRP4       -0.3604
     14 CA          4.5937    1.0018    0.9545 C.3     1  PRO1        0.1023
     15 CB          5.2665    1.6271    2.1804 C.3     1  PRO1       -0.0243
     16 CG          4.1106    2.2665    2.9405 C.3     1  PRO1       -0.0350
     17 CD          3.2122    2.7703    1.8243 C.3     1  PRO1        0.0156
     18 C           4.2835   -0.5007    1.1529 C.2     1  PRO1        0.2342
     19 C           2.7218    1.7999   -0.4455 C.2     5  ASP5        0.2369
     20 CA          3.7583   -2.5972   -0.0963 C.3     2  VAL2        0.1017
     21 CA          1.5761    2.8176   -0.6659 C.3     5  ASP5        0.1047
     22 CB          4.7750   -3.3981   -0.9398 C.3     2  VAL2       -0.0197
     23 CA         -0.0538   -2.4904   -0.1692 C.3     3  LEU3        0.0996
     24 C           2.3461   -2.6300   -0.7109 C.2     2  VAL2        0.2342
     25 CB          1.7308    3.5003   -2.0150 C.3     5  ASP5        0.0138
     26 CA         -1.6350    0.9715    0.3692 C.3     4  TRP4        0.1034
     27 CB         -0.9973   -3.6097    0.2961 C.3     3  LEU3       -0.0236
     28 CG         -0.9293   -4.9059   -0.5405 C.3     3  LEU3       -0.0446
     29 C          -0.5129    2.0221    0.4320 C.2     4  TRP4        0.2343
     30 CB         -2.8055    1.5785   -0.4175 C.3     4  TRP4        0.0013
     31 C          -0.4489   -1.1834    0.5387 C.2     3  LEU3        0.2340
     32 CG1         4.3321   -4.8545   -1.1267 C.3     2  VAL2       -0.0605
     33 CG2         6.1596   -3.3845   -0.2794 C.3     2  VAL2       -0.0605
     34 CG         -3.9809    0.6524   -0.5310 C.ar    4  TRP4       -0.0201
     35 CG          3.0086    4.3268   -1.9512 C.2     5  ASP5        0.0440
     36 CD1         0.3646   -5.6918   -0.3272 C.3     3  LEU3       -0.0626
     37 CD2        -2.1204   -5.8054   -0.1940 C.3     3  LEU3       -0.0626
     38 CD2        -4.4936    0.0574   -1.7285 C.ar    4  TRP4        0.0029
     39 CD1        -4.7741    0.2067    0.5089 C.ar    4  TRP4        0.0060
     40 CE2        -5.5765   -0.7445   -1.3660 C.ar    4  TRP4        0.0467
     41 CE3        -4.1359    0.1260   -3.0909 C.ar    4  TRP4       -0.0523
     42 CZ2        -6.3175   -1.4837   -2.2956 C.ar    4  TRP4       -0.0378
     43 CZ3        -4.8684   -0.6037   -4.0340 C.ar    4  TRP4       -0.0611
     44 CH2        -5.9423   -1.3971   -3.6393 C.ar    4  TRP4       -0.0598
     45 H           3.8947   -0.6043   -0.8455 H       2  VAL2        0.1495
     46 H           0.4042    1.1457   -1.1815 H       5  ASP5        0.1495
     47 H           1.5661   -2.4727    1.1774 H       3  LEU3        0.1495
     48 H          -1.3646   -0.4826   -1.1946 H       4  TRP4        0.1495
     49 HE1        -6.4328   -1.1078    0.5374 H       4  TRP4        0.1653
     50 HA          5.2449    1.1046    0.0770 H       1  PRO1        0.0597
     51 HB1         5.9600    2.4127    1.8557 H       1  PRO1        0.0288
     52 HB2         5.8286    0.9168    2.7938 H       1  PRO1        0.0288
     53 HG1         4.4325    3.0652    3.6137 H       1  PRO1        0.0281
     54 HG2         3.5871    1.5064    3.5330 H       1  PRO1        0.0281
     55 HD1         2.1673    2.8403    2.1350 H       1  PRO1        0.0465
     56 HD2         3.5514    3.7424    1.4536 H       1  PRO1        0.0465
     57 HA          3.7169   -3.0190    0.9151 H       2  VAL2        0.0597
     58 HA          1.5211    3.5537    0.1379 H       5  ASP5        0.0598
     59 HB          4.8700   -2.9417   -1.9339 H       2  VAL2        0.0318
     60 HA         -0.1372   -2.3529   -1.2524 H       3  LEU3        0.0594
     61 HB1         0.8829    4.1637   -2.2185 H       5  ASP5        0.0348
     62 HB2         1.7833    2.7719   -2.8333 H       5  ASP5        0.0348
     63 HA         -1.9370    0.7581    1.4024 H       4  TRP4        0.0598
     64 HB1        -2.0258   -3.2261    0.2456 H       3  LEU3        0.0290
     65 HB2        -0.8141   -3.8427    1.3539 H       3  LEU3        0.0290
     66 HG         -1.0063   -4.6470   -1.6040 H       3  LEU3        0.0296
     67 HB1        -2.4683    1.8711   -1.4200 H       4  TRP4        0.0337
     68 HB2        -3.1360    2.5058    0.0691 H       4  TRP4        0.0337
     69 HG11        4.1305   -5.3356   -0.1634 H       2  VAL2        0.0233
     70 HG12        5.1054   -5.4358   -1.6400 H       2  VAL2        0.0233
     71 HG13        3.4262   -4.9198   -1.7364 H       2  VAL2        0.0233
     72 HG21        6.1214   -3.8167    0.7267 H       2  VAL2        0.0233
     73 HG22        6.5533   -2.3667   -0.1976 H       2  VAL2        0.0233
     74 HG23        6.8767   -3.9665   -0.8684 H       2  VAL2        0.0233
     75 HD11        0.5613   -5.8581    0.7371 H       3  LEU3        0.0232
     76 HD12        1.2208   -5.1718   -0.7587 H       3  LEU3        0.0232
     77 HD13        0.3138   -6.6705   -0.8170 H       3  LEU3        0.0232
     78 HD21       -2.1015   -6.1005    0.8606 H       3  LEU3        0.0232
     79 HD22       -2.1095   -6.7170   -0.8013 H       3  LEU3        0.0232
     80 HD23       -3.0676   -5.2912   -0.3876 H       3  LEU3        0.0232
     81 HD1        -4.7344    0.4124    1.5710 H       4  TRP4        0.0810
     82 HE3        -3.3058    0.7472   -3.4158 H       4  TRP4        0.0624
     83 HZ2        -7.1568   -2.0998   -1.9912 H       4  TRP4        0.0638
     84 HZ3        -4.5951   -0.5445   -5.0848 H       4  TRP4        0.0618
     85 HH2        -6.5002   -1.9548   -4.3877 H       4  TRP4        0.0618
@<TRIPOS>BOND
     1     1    18    2
     2     2    19    2
     3     3    24    2
     4     4    29    2
     5     5    31    2
     6     6    35   ar
     7     7    35   ar
     8     8    14    1
     9     8    17    1
    10     8    19   am
    11     9    18   am
    12     9    20    1
    13    10    21    1
    14    10    29   am
    15    11    23    1
    16    11    24   am
    17    12    26    1
    18    12    31   am
    19    13    39   ar
    20    13    40   ar
    21    14    15    1
    22    14    18    1
    23    15    16    1
    24    16    17    1
    25    19    21    1
    26    20    22    1
    27    20    24    1
    28    21    25    1
    29    22    32    1
    30    22    33    1
    31    23    27    1
    32    23    31    1
    33    25    35    1
    34    26    29    1
    35    26    30    1
    36    27    28    1
    37    28    36    1
    38    28    37    1
    39    30    34    1
    40    34    38   ar
    41    34    39   ar
    42    38    40   ar
    43    38    41   ar
    44    40    42   ar
    45    41    43   ar
    46    42    44   ar
    47    43    44   ar
    48     9    45    1
    49    10    46    1
    50    11    47    1
    51    12    48    1
    52    13    49    1
    53    14    50    1
    54    15    51    1
    55    15    52    1
    56    16    53    1
    57    16    54    1
    58    17    55    1
    59    17    56    1
    60    20    57    1
    61    21    58    1
    62    22    59    1
    63    23    60    1
    64    25    61    1
    65    25    62    1
    66    26    63    1
    67    27    64    1
    68    27    65    1
    69    28    66    1
    70    30    67    1
    71    30    68    1
    72    32    69    1
    73    32    70    1
    74    32    71    1
    75    33    72    1
    76    33    73    1
    77    33    74    1
    78    36    75    1
    79    36    76    1
    80    36    77    1
    81    37    78    1
    82    37    79    1
    83    37    80    1
    84    39    81    1
    85    41    82    1
    86    42    83    1
    87    43    84    1
    88    44    85    1
@<TRIPOS>MOLECULE
16219006
 85 88 0 0 0
SMALL
GASTEIGER

@<TRIPOS>ATOM
      1 O           4.2084   -1.0311    2.2259 O.2     1  PRO1       -0.2738
      2 O           3.1570    1.0555   -1.3491 O.2     5  ASP5       -0.2735
      3 O           2.0413   -2.1716   -1.8993 O.2     2  VAL2       -0.2738
      4 O          -0.4856    2.9544    1.2408 O.2     4  TRP4       -0.2738
      5 O          -0.2457   -1.0970    1.7615 O.2     3  LEU3       -0.2738
      6 OD1         3.5555    4.6233   -1.1007 O.co2   5  ASP5       -0.5497
      7 OD2         3.0012    5.0002   -3.2813 O.co2   5  ASP5       -0.5497
      8 N           3.4243    1.8121    0.7713 N.am    1  PRO1       -0.2884
      9 N           4.1682   -1.1189   -0.0623 N.am    2  VAL2       -0.3022
     10 N           0.4564    1.9607   -0.6023 N.am    5  ASP5       -0.3021
     11 N           1.2981   -2.7814    0.1730 N.am    3  LEU3       -0.3025
     12 N          -1.0988   -0.2951   -0.2087 N.am    4  TRP4       -0.3022
     13 NE1        -5.4891   -0.7120   -1.3499 N.ar    4  TRP4       -0.3604
     14 CA          4.6468    1.0407    0.9856 C.3     1  PRO1        0.1023
     15 CB          5.2639    1.6437    2.2503 C.3     1  PRO1       -0.0243
     16 CG          4.0683    2.2328    2.9887 C.3     1  PRO1       -0.0350
     17 CD          3.1936    2.7479    1.8575 C.3     1  PRO1        0.0156
     18 C           4.3271   -0.4633    1.1418 C.2     1  PRO1        0.2342
     19 C           2.8457    1.8833   -0.4786 C.2     5  ASP5        0.2369
     20 CA          3.7178   -2.5011   -0.1471 C.3     2  VAL2        0.1017
     21 CA          1.6408    2.8360   -0.6826 C.3     5  ASP5        0.1047
     22 CB          4.7191   -3.3791   -0.9308 C.3     2  VAL2       -0.0197
     23 CA         -0.0979   -2.5481   -0.1706 C.3     3  LEU3        0.0996
     24 C           2.2928   -2.4815   -0.7372 C.2     2  VAL2        0.2342
     25 CB          1.6903    3.4966   -2.0490 C.3     5  ASP5        0.0138
     26 CA         -1.5602    0.9634    0.3882 C.3     4  TRP4        0.1034
     27 CB         -1.0187   -3.6823    0.3035 C.3     3  LEU3       -0.0236
     28 CG         -0.9356   -4.9715   -0.5419 C.3     3  LEU3       -0.0446
     29 C          -0.4464    2.0260    0.4360 C.2     4  TRP4        0.2343
     30 CB         -2.7520    1.5593   -0.3787 C.3     4  TRP4        0.0013
     31 C          -0.4813   -1.2486    0.5642 C.2     3  LEU3        0.2340
     32 CG1         4.9829   -2.9294   -2.3696 C.3     2  VAL2       -0.0605
     33 CG2         4.2978   -4.8511   -0.9146 C.3     2  VAL2       -0.0605
     34 CG         -3.9236    0.6252   -0.4922 C.ar    4  TRP4       -0.0201
     35 CG          2.8678    4.4608   -2.1464 C.2     5  ASP5        0.0440
     36 CD1         0.3892   -5.7149   -0.3727 C.3     3  LEU3       -0.0626
     37 CD2        -2.0870   -5.9101   -0.1698 C.3     3  LEU3       -0.0626
     38 CD2        -4.7330    0.1155    0.5757 C.ar    4  TRP4        0.0029
     39 CD1        -4.4289    0.0942   -1.6638 C.ar    4  TRP4        0.0060
     40 CE2        -5.6913   -0.7257    0.0098 C.ar    4  TRP4        0.0467
     41 CE3        -4.7361    0.2864    1.9758 C.ar    4  TRP4       -0.0523
     42 CZ2        -6.6456   -1.4113    0.7722 C.ar    4  TRP4       -0.0378
     43 CZ3        -5.6799   -0.3946    2.7536 C.ar    4  TRP4       -0.0611
     44 CH2        -6.6196   -1.2317    2.1578 C.ar    4  TRP4       -0.0598
     45 H           3.9589   -0.5100   -0.8633 H       2  VAL2        0.1495
     46 H           0.5359    1.0882   -1.1085 H       5  ASP5        0.1495
     47 H           1.5305   -2.6499    1.1559 H       3  LEU3        0.1495
     48 H          -1.1819   -0.4209   -1.2087 H       4  TRP4        0.1495
     49 HE1        -6.0485   -1.2237   -2.0168 H       4  TRP4        0.1653
     50 HA          5.3286    1.1642    0.1345 H       1  PRO1        0.0597
     51 HB1         5.9495    2.4542    1.9721 H       1  PRO1        0.0288
     52 HB2         5.8215    0.9275    2.8603 H       1  PRO1        0.0288
     53 HG1         4.3493    3.0193    3.6950 H       1  PRO1        0.0281
     54 HG2         3.5449    1.4444    3.5428 H       1  PRO1        0.0281
     55 HD1         2.1373    2.7764    2.1336 H       1  PRO1        0.0465
     56 HD2         3.5136    3.7435    1.5341 H       1  PRO1        0.0465
     57 HA          3.6582   -2.9102    0.8691 H       2  VAL2        0.0597
     58 HA          1.5820    3.5929    0.1037 H       5  ASP5        0.0598
     59 HB          5.6798   -3.3141   -0.4006 H       2  VAL2        0.0318
     60 HA         -0.2141   -2.4043   -1.2498 H       3  LEU3        0.0594
     61 HB1         0.7679    4.0622   -2.2271 H       5  ASP5        0.0348
     62 HB2         1.7760    2.7528   -2.8505 H       5  ASP5        0.0348
     63 HA         -1.8384    0.7579    1.4288 H       4  TRP4        0.0598
     64 HB1        -2.0536   -3.3150    0.2667 H       3  LEU3        0.0290
     65 HB2        -0.8181   -3.9172    1.3574 H       3  LEU3        0.0290
     66 HG         -1.0505   -4.7095   -1.6018 H       3  LEU3        0.0296
     67 HB1        -2.4314    1.8533   -1.3874 H       4  TRP4        0.0337
     68 HB2        -3.0864    2.4831    0.1120 H       4  TRP4        0.0337
     69 HG11        4.1036   -3.0564   -3.0081 H       2  VAL2        0.0233
     70 HG12        5.7888   -3.5275   -2.8096 H       2  VAL2        0.0233
     71 HG13        5.2933   -1.8812   -2.4128 H       2  VAL2        0.0233
     72 HG21        3.4131   -5.0209   -1.5361 H       2  VAL2        0.0233
     73 HG22        4.0733   -5.1872    0.1030 H       2  VAL2        0.0233
     74 HG23        5.1010   -5.4858   -1.3044 H       2  VAL2        0.0233
     75 HD11        0.6329   -5.8644    0.6849 H       3  LEU3        0.0232
     76 HD12        1.2079   -5.1685   -0.8424 H       3  LEU3        0.0232
     77 HD13        0.3536   -6.6993   -0.8528 H       3  LEU3        0.0232
     78 HD21       -2.0323   -6.2075    0.8833 H       3  LEU3        0.0232
     79 HD22       -2.0612   -6.8195   -0.7803 H       3  LEU3        0.0232
     80 HD23       -3.0547   -5.4266   -0.3384 H       3  LEU3        0.0232
     81 HD1        -4.1252    0.2279   -2.6942 H       4  TRP4        0.0810
     82 HE3        -4.0108    0.9370    2.4561 H       4  TRP4        0.0624
     83 HZ2        -7.3807   -2.0611    0.3105 H       4  TRP4        0.0638
     84 HZ3        -5.6732   -0.2661    3.8334 H       4  TRP4        0.0618
     85 HH2        -7.3430   -1.7527    2.7800 H       4  TRP4        0.0618
@<TRIPOS>BOND
     1     1    18    2
     2     2    19    2
     3     3    24    2
     4     4    29    2
     5     5    31    2
     6     6    35   ar
     7     7    35   ar
     8     8    14    1
     9     8    17    1
    10     8    19   am
    11     9    18   am
    12     9    20    1
    13    10    21    1
    14    10    29   am
    15    11    23    1
    16    11    24   am
    17    12    26    1
    18    12    31   am
    19    13    39   ar
    20    13    40   ar
    21    14    15    1
    22    14    18    1
    23    15    16    1
    24    16    17    1
    25    19    21    1
    26    20    22    1
    27    20    24    1
    28    21    25    1
    29    22    32    1
    30    22    33    1
    31    23    27    1
    32    23    31    1
    33    25    35    1
    34    26    29    1
    35    26    30    1
    36    27    28    1
    37    28    36    1
    38    28    37    1
    39    30    34    1
    40    34    38   ar
    41    34    39   ar
    42    38    40   ar
    43    38    41   ar
    44    40    42   ar
    45    41    43   ar
    46    42    44   ar
    47    43    44   ar
    48     9    45    1
    49    10    46    1
    50    11    47    1
    51    12    48    1
    52    13    49    1
    53    14    50    1
    54    15    51    1
    55    15    52    1
    56    16    53    1
    57    16    54    1
    58    17    55    1
    59    17    56    1
    60    20    57    1
    61    21    58    1
    62    22    59    1
    63    23    60    1
    64    25    61    1
    65    25    62    1
    66    26    63    1
    67    27    64    1
    68    27    65    1
    69    28    66    1
    70    30    67    1
    71    30    68    1
    72    32    69    1
    73    32    70    1
    74    32    71    1
    75    33    72    1
    76    33    73    1
    77    33    74    1
    78    36    75    1
    79    36    76    1
    80    36    77    1
    81    37    78    1
    82    37    79    1
    83    37    80    1
    84    39    81    1
    85    41    82    1
    86    42    83    1
    87    43    84    1
    88    44    85    1
@<TRIPOS>MOLECULE
16219006
 85 88 0 0 0
SMALL
GASTEIGER

@<TRIPOS>ATOM
      1 O           4.4871   -0.9465    2.2218 O.2     1  PRO1       -0.2738
      2 O           3.4580    1.2784   -1.4458 O.2     5  ASP5       -0.2735
      3 O           1.9884   -1.6169   -1.7198 O.2     2  VAL2       -0.2738
      4 O          -0.3489    2.8038    1.3767 O.2     4  TRP4       -0.2738
      5 O          -0.3213   -1.3410    1.7516 O.2     3  LEU3       -0.2738
      6 OD1         0.7693    5.4180   -2.2791 O.co2   5  ASP5       -0.5497
      7 OD2        -0.7602    3.7166   -2.3606 O.co2   5  ASP5       -0.5497
      8 N           3.4958    1.8885    0.7273 N.am    1  PRO1       -0.2884
      9 N           4.1936   -1.0023   -0.0482 N.am    2  VAL2       -0.3022
     10 N           0.5660    1.7375   -0.4412 N.am    5  ASP5       -0.3021
     11 N           1.2410   -2.8924    0.0255 N.am    3  LEU3       -0.3025
     12 N          -1.1426   -0.3668   -0.1579 N.am    4  TRP4       -0.3022
     13 NE1        -5.4929   -0.9517   -0.0025 N.ar    4  TRP4       -0.3604
     14 CA          4.7380    1.1590    0.9896 C.3     1  PRO1        0.1023
     15 CB          5.2677    1.7907    2.2774 C.3     1  PRO1       -0.0243
     16 CG          4.0005    2.2247    3.0059 C.3     1  PRO1       -0.0350
     17 CD          3.0863    2.6781    1.8773 C.3     1  PRO1        0.0156
     18 C           4.4597   -0.3567    1.1430 C.2     1  PRO1        0.2342
     19 C           2.9473    1.9472   -0.5379 C.2     5  ASP5        0.2369
     20 CA          3.6439   -2.3527   -0.0861 C.3     2  VAL2        0.1017
     21 CA          1.6167    2.7139   -0.7305 C.3     5  ASP5        0.1047
     22 CB          4.5587   -3.3329   -0.8517 C.3     2  VAL2       -0.0197
     23 CA         -0.1499   -2.6052   -0.3057 C.3     3  LEU3        0.0996
     24 C           2.2293   -2.2400   -0.6874 C.2     2  VAL2        0.2342
     25 CB          1.5248    3.1979   -2.1724 C.3     5  ASP5        0.0138
     26 CA         -1.5458    0.8857    0.4984 C.3     4  TRP4        0.1034
     27 CB         -1.0764   -3.7735    0.0463 C.3     3  LEU3       -0.0236
     28 CG         -0.7592   -5.0876   -0.6946 C.3     3  LEU3       -0.0446
     29 C          -0.3743    1.8912    0.5528 C.2     4  TRP4        0.2343
     30 CB         -2.7409    1.5302   -0.2208 C.3     4  TRP4        0.0013
     31 C          -0.5383   -1.3810    0.5413 C.2     3  LEU3        0.2340
     32 CG1         4.7925   -2.9566   -2.3175 C.3     2  VAL2       -0.0605
     33 CG2         4.0377   -4.7710   -0.7615 C.3     2  VAL2       -0.0605
     34 CG         -3.9822    0.6686   -0.2979 C.ar    4  TRP4       -0.0201
     35 CG          0.3989    4.2098   -2.2672 C.2     5  ASP5        0.0440
     36 CD1        -1.7397   -6.1765   -0.2519 C.3     3  LEU3       -0.0626
     37 CD2        -0.8092   -4.9329   -2.2151 C.3     3  LEU3       -0.0626
     38 CD2        -5.1157    0.9217   -1.1413 C.ar    4  TRP4        0.0029
     39 CD1        -4.2722   -0.4877    0.4047 C.ar    4  TRP4        0.0060
     40 CE2        -6.0354   -0.1083   -0.9408 C.ar    4  TRP4        0.0467
     41 CE3        -5.4395    1.9393   -2.0621 C.ar    4  TRP4       -0.0523
     42 CZ2        -7.2590   -0.1778   -1.6183 C.ar    4  TRP4       -0.0378
     43 CZ3        -6.6631    1.8917   -2.7408 C.ar    4  TRP4       -0.0611
     44 CH2        -7.5571    0.8460   -2.5223 C.ar    4  TRP4       -0.0598
     45 H           3.9650   -0.3943   -0.8442 H       2  VAL2        0.1495
     46 H           0.4540    0.9890   -1.1102 H       5  ASP5        0.1495
     47 H           1.4228   -3.0103    1.0182 H       3  LEU3        0.1495
     48 H          -1.1967   -0.3999   -1.1691 H       4  TRP4        0.1495
     49 HE1        -5.9405   -1.7887    0.3414 H       4  TRP4        0.1653
     50 HA          5.4493    1.2962    0.1667 H       1  PRO1        0.0597
     51 HB1         5.8648    2.6779    2.0327 H       1  PRO1        0.0288
     52 HB2         5.8888    1.1219    2.8801 H       1  PRO1        0.0288
     53 HG1         4.1824    3.0137    3.7410 H       1  PRO1        0.0281
     54 HG2         3.5567    1.3693    3.5286 H       1  PRO1        0.0281
     55 HD1         2.0359    2.5115    2.1152 H       1  PRO1        0.0465
     56 HD2         3.2436    3.7355    1.6388 H       1  PRO1        0.0465
     57 HA          3.5488   -2.7164    0.9439 H       2  VAL2        0.0597
     58 HA          1.5566    3.5579   -0.0374 H       5  ASP5        0.0598
     59 HB          5.5405   -3.3127   -0.3584 H       2  VAL2        0.0318
     60 HA         -0.2420   -2.3543   -1.3671 H       3  LEU3        0.0594
     61 HB1         1.3420    2.3741   -2.8733 H       5  ASP5        0.0348
     62 HB2         2.4639    3.6758   -2.4779 H       5  ASP5        0.0348
     63 HA         -1.8067    0.6538    1.5387 H       4  TRP4        0.0598
     64 HB1        -2.1134   -3.4768   -0.1622 H       3  LEU3        0.0290
     65 HB2        -1.0297   -3.9627    1.1277 H       3  LEU3        0.0290
     66 HG          0.2499   -5.4180   -0.4180 H       3  LEU3        0.0296
     67 HB1        -2.4459    1.7928   -1.2452 H       4  TRP4        0.0337
     68 HB2        -3.0070    2.4705    0.2791 H       4  TRP4        0.0337
     69 HG11        3.8752   -3.0337   -2.9093 H       2  VAL2        0.0233
     70 HG12        5.5300   -3.6298   -2.7692 H       2  VAL2        0.0233
     71 HG13        5.1801   -1.9377   -2.4119 H       2  VAL2        0.0233
     72 HG21        3.0861   -4.8907   -1.2901 H       2  VAL2        0.0233
     73 HG22        3.8889   -5.0686    0.2817 H       2  VAL2        0.0233
     74 HG23        4.7547   -5.4696   -1.2064 H       2  VAL2        0.0233
     75 HD11       -2.7705   -5.9130   -0.5128 H       3  LEU3        0.0232
     76 HD12       -1.6916   -6.3265    0.8319 H       3  LEU3        0.0232
     77 HD13       -1.5026   -7.1323   -0.7311 H       3  LEU3        0.0232
     78 HD21       -1.7696   -4.5195   -2.5409 H       3  LEU3        0.0232
     79 HD22       -0.6718   -5.9007   -2.7093 H       3  LEU3        0.0232
     80 HD23       -0.0130   -4.2735   -2.5742 H       3  LEU3        0.0232
     81 HD1        -3.7064   -1.0273    1.1527 H       4  TRP4        0.0810
     82 HE3        -4.7444    2.7569   -2.2418 H       4  TRP4        0.0624
     83 HZ2        -7.9559   -0.9913   -1.4495 H       4  TRP4        0.0638
     84 HZ3        -6.9102    2.6817   -3.4454 H       4  TRP4        0.0618
     85 HH2        -8.5004    0.8264   -3.0621 H       4  TRP4        0.0618
@<TRIPOS>BOND
     1     1    18    2
     2     2    19    2
     3     3    24    2
     4     4    29    2
     5     5    31    2
     6     6    35   ar
     7     7    35   ar
     8     8    14    1
     9     8    17    1
    10     8    19   am
    11     9    18   am
    12     9    20    1
    13    10    21    1
    14    10    29   am
    15    11    23    1
    16    11    24   am
    17    12    26    1
    18    12    31   am
    19    13    39   ar
    20    13    40   ar
    21    14    15    1
    22    14    18    1
    23    15    16    1
    24    16    17    1
    25    19    21    1
    26    20    22    1
    27    20    24    1
    28    21    25    1
    29    22    32    1
    30    22    33    1
    31    23    27    1
    32    23    31    1
    33    25    35    1
    34    26    29    1
    35    26    30    1
    36    27    28    1
    37    28    36    1
    38    28    37    1
    39    30    34    1
    40    34    38   ar
    41    34    39   ar
    42    38    40   ar
    43    38    41   ar
    44    40    42   ar
    45    41    43   ar
    46    42    44   ar
    47    43    44   ar
    48     9    45    1
    49    10    46    1
    50    11    47    1
    51    12    48    1
    52    13    49    1
    53    14    50    1
    54    15    51    1
    55    15    52    1
    56    16    53    1
    57    16    54    1
    58    17    55    1
    59    17    56    1
    60    20    57    1
    61    21    58    1
    62    22    59    1
    63    23    60    1
    64    25    61    1
    65    25    62    1
    66    26    63    1
    67    27    64    1
    68    27    65    1
    69    28    66    1
    70    30    67    1
    71    30    68    1
    72    32    69    1
    73    32    70    1
    74    32    71    1
    75    33    72    1
    76    33    73    1
    77    33    74    1
    78    36    75    1
    79    36    76    1
    80    36    77    1
    81    37    78    1
    82    37    79    1
    83    37    80    1
    84    39    81    1
    85    41    82    1
    86    42    83    1
    87    43    84    1
    88    44    85    1
@<TRIPOS>MOLECULE
16219006
 85 88 0 0 0
SMALL
GASTEIGER

@<TRIPOS>ATOM
      1 O           4.5485   -0.9717    2.1928 O.2     1  PRO1       -0.2738
      2 O           3.3858    1.2213   -1.4248 O.2     5  ASP5       -0.2735
      3 O           1.9003   -1.6917   -1.7321 O.2     2  VAL2       -0.2738
      4 O           0.0522    2.4408    1.5695 O.2     4  TRP4       -0.2738
      5 O          -0.5989   -1.3451    1.7792 O.2     3  LEU3       -0.2738
      6 OD1         0.6458    5.5018   -2.1487 O.co2   5  ASP5       -0.5497
      7 OD2        -0.4878    3.5804   -2.6685 O.co2   5  ASP5       -0.5497
      8 N           3.5427    1.9040    0.7162 N.am    1  PRO1       -0.2884
      9 N           4.1061   -1.0169   -0.0518 N.am    2  VAL2       -0.3022
     10 N           0.4985    1.9417   -0.6340 N.am    5  ASP5       -0.3021
     11 N           1.1369   -2.8662    0.0743 N.am    3  LEU3       -0.3025
     12 N          -1.1439   -0.3005   -0.2013 N.am    4  TRP4       -0.3022
     13 NE1        -3.5693    5.0924    0.4996 N.ar    4  TRP4       -0.3604
     14 CA          4.7667    1.1286    0.9430 C.3     1  PRO1        0.1023
     15 CB          5.3753    1.7517    2.2029 C.3     1  PRO1       -0.0243
     16 CG          4.1607    2.2689    2.9619 C.3     1  PRO1       -0.0350
     17 CD          3.2550    2.7701    1.8489 C.3     1  PRO1        0.0156
     18 C           4.4570   -0.3779    1.1198 C.2     1  PRO1        0.2342
     19 C           2.9410    1.9502   -0.5253 C.2     5  ASP5        0.2369
     20 CA          3.5526   -2.3626   -0.0675 C.3     2  VAL2        0.1017
     21 CA          1.6755    2.8203   -0.7360 C.3     5  ASP5        0.1047
     22 CB          4.4297   -3.3745   -0.8393 C.3     2  VAL2       -0.0197
     23 CA         -0.2543   -2.5829   -0.2737 C.3     3  LEU3        0.0996
     24 C           2.1349   -2.2633   -0.6685 C.2     2  VAL2        0.2342
     25 CB          1.7785    3.4399   -2.1294 C.3     5  ASP5        0.0138
     26 CA         -1.5068    0.9768    0.4372 C.3     4  TRP4        0.1034
     27 CB         -1.1559   -3.7742    0.0754 C.3     3  LEU3       -0.0236
     28 CG         -2.6464   -3.5628   -0.2666 C.3     3  LEU3       -0.0446
     29 C          -0.2387    1.8498    0.5318 C.2     4  TRP4        0.2343
     30 CB         -2.6427    1.6411   -0.3463 C.3     4  TRP4        0.0013
     31 C          -0.6714   -1.3528    0.5515 C.2     3  LEU3        0.2340
     32 CG1         5.7356   -3.6471   -0.0850 C.3     2  VAL2       -0.0605
     33 CG2         4.7550   -2.9539   -2.2766 C.3     2  VAL2       -0.0605
     34 CG         -3.1490    2.9179    0.2450 C.ar    4  TRP4       -0.0201
     35 CG          0.5269    4.2646   -2.3371 C.2     5  ASP5        0.0440
     36 CD1        -2.8780   -3.3316   -1.7600 C.3     3  LEU3       -0.0626
     37 CD2        -3.4624   -4.7682    0.2042 C.3     3  LEU3       -0.0626
     38 CD2        -3.8667    3.1073    1.4696 C.ar    4  TRP4        0.0029
     39 CD1        -2.9990    4.1659   -0.3244 C.ar    4  TRP4        0.0060
     40 CE2        -4.1192    4.4753    1.5986 C.ar    4  TRP4        0.0467
     41 CE3        -4.3169    2.2458    2.4918 C.ar    4  TRP4       -0.0523
     42 CZ2        -4.7998    5.0226    2.6930 C.ar    4  TRP4       -0.0378
     43 CZ3        -4.9919    2.7779    3.5977 C.ar    4  TRP4       -0.0611
     44 CH2        -5.2301    4.1465    3.6934 C.ar    4  TRP4       -0.0598
     45 H           3.8522   -0.4074   -0.8401 H       2  VAL2        0.1495
     46 H          -0.0660    1.9567   -1.4857 H       5  ASP5        0.1495
     47 H           1.3173   -2.9578    1.0702 H       3  LEU3        0.1495
     48 H          -0.7654   -0.2242   -1.1412 H       4  TRP4        0.1495
     49 HE1        -3.5657    6.0873    0.3284 H       4  TRP4        0.1653
     50 HA          5.4511    1.2374    0.0946 H       1  PRO1        0.0597
     51 HB1         6.0125    2.6000    1.9222 H       1  PRO1        0.0288
     52 HB2         5.9788    1.0612    2.7996 H       1  PRO1        0.0288
     53 HG1         4.4085    3.0495    3.6855 H       1  PRO1        0.0281
     54 HG2         3.6767    1.4455    3.4993 H       1  PRO1        0.0281
     55 HD1         2.2104    2.7221    2.1407 H       1  PRO1        0.0465
     56 HD2         3.5021    3.7994    1.5626 H       1  PRO1        0.0465
     57 HA          3.4524   -2.7155    0.9654 H       2  VAL2        0.0597
     58 HA          1.6119    3.6098    0.0175 H       5  ASP5        0.0598
     59 HB          3.8803   -4.3231   -0.8948 H       2  VAL2        0.0318
     60 HA         -0.3195   -2.3671   -1.3442 H       3  LEU3        0.0594
     61 HB1         1.8364    2.6756   -2.9159 H       5  ASP5        0.0348
     62 HB2         2.6750    4.0638   -2.2156 H       5  ASP5        0.0348
     63 HA         -1.8291    0.7639    1.4633 H       4  TRP4        0.0598
     64 HB1        -1.0671   -3.9942    1.1489 H       3  LEU3        0.0290
     65 HB2        -0.7844   -4.6667   -0.4466 H       3  LEU3        0.0290
     66 HG         -3.0199   -2.6858    0.2765 H       3  LEU3        0.0296
     67 HB1        -3.4858    0.9400   -0.4133 H       4  TRP4        0.0337
     68 HB2        -2.3319    1.8176   -1.3838 H       4  TRP4        0.0337
     69 HG11        6.3668   -2.7525   -0.0341 H       2  VAL2        0.0233
     70 HG12        6.3132   -4.4348   -0.5820 H       2  VAL2        0.0233
     71 HG13        5.5344   -3.9811    0.9390 H       2  VAL2        0.0233
     72 HG21        5.2890   -1.9982   -2.3112 H       2  VAL2        0.0233
     73 HG22        3.8489   -2.8632   -2.8830 H       2  VAL2        0.0233
     74 HG23        5.3895   -3.7047   -2.7619 H       2  VAL2        0.0233
     75 HD11       -2.4563   -4.1463   -2.3586 H       3  LEU3        0.0232
     76 HD12       -2.4270   -2.3924   -2.0958 H       3  LEU3        0.0232
     77 HD13       -3.9494   -3.2681   -1.9824 H       3  LEU3        0.0232
     78 HD21       -3.1493   -5.6852   -0.3069 H       3  LEU3        0.0232
     79 HD22       -4.5293   -4.6158    0.0056 H       3  LEU3        0.0232
     80 HD23       -3.3441   -4.9209    1.2817 H       3  LEU3        0.0232
     81 HD1        -2.5030    4.4718   -1.2399 H       4  TRP4        0.0810
     82 HE3        -4.1281    1.1780    2.4333 H       4  TRP4        0.0624
     83 HZ2        -4.9764    6.0900    2.7704 H       4  TRP4        0.0638
     84 HZ3        -5.3228    2.1134    4.3910 H       4  TRP4        0.0618
     85 HH2        -5.7496    4.5425    4.5621 H       4  TRP4        0.0618
@<TRIPOS>BOND
     1     1    18    2
     2     2    19    2
     3     3    24    2
     4     4    29    2
     5     5    31    2
     6     6    35   ar
     7     7    35   ar
     8     8    14    1
     9     8    17    1
    10     8    19   am
    11     9    18   am
    12     9    20    1
    13    10    21    1
    14    10    29   am
    15    11    23    1
    16    11    24   am
    17    12    26    1
    18    12    31   am
    19    13    39   ar
    20    13    40   ar
    21    14    15    1
    22    14    18    1
    23    15    16    1
    24    16    17    1
    25    19    21    1
    26    20    22    1
    27    20    24    1
    28    21    25    1
    29    22    32    1
    30    22    33    1
    31    23    27    1
    32    23    31    1
    33    25    35    1
    34    26    29    1
    35    26    30    1
    36    27    28    1
    37    28    36    1
    38    28    37    1
    39    30    34    1
    40    34    38   ar
    41    34    39   ar
    42    38    40   ar
    43    38    41   ar
    44    40    42   ar
    45    41    43   ar
    46    42    44   ar
    47    43    44   ar
    48     9    45    1
    49    10    46    1
    50    11    47    1
    51    12    48    1
    52    13    49    1
    53    14    50    1
    54    15    51    1
    55    15    52    1
    56    16    53    1
    57    16    54    1
    58    17    55    1
    59    17    56    1
    60    20    57    1
    61    21    58    1
    62    22    59    1
    63    23    60    1
    64    25    61    1
    65    25    62    1
    66    26    63    1
    67    27    64    1
    68    27    65    1
    69    28    66    1
    70    30    67    1
    71    30    68    1
    72    32    69    1
    73    32    70    1
    74    32    71    1
    75    33    72    1
    76    33    73    1
    77    33    74    1
    78    36    75    1
    79    36    76    1
    80    36    77    1
    81    37    78    1
    82    37    79    1
    83    37    80    1
    84    39    81    1
    85    41    82    1
    86    42    83    1
    87    43    84    1
    88    44    85    1
@<TRIPOS>MOLECULE
16219006
 85 88 0 0 0
SMALL
GASTEIGER

@<TRIPOS>ATOM
      1 O           4.3423   -0.9848    2.2168 O.2     1  PRO1       -0.2738
      2 O           3.2509    1.1228   -1.3695 O.2     5  ASP5       -0.2735
      3 O           1.9695   -1.8423   -1.7800 O.2     2  VAL2       -0.2738
      4 O          -0.4585    2.9215    1.2583 O.2     4  TRP4       -0.2738
      5 O          -0.3962   -1.1991    1.8021 O.2     3  LEU3       -0.2738
      6 OD1         3.5292    4.6556   -1.1148 O.co2   5  ASP5       -0.5497
      7 OD2         2.8062    5.1673   -3.2159 O.co2   5  ASP5       -0.5497
      8 N           3.4815    1.8407    0.7673 N.am    1  PRO1       -0.2884
      9 N           4.2145   -1.0622   -0.0694 N.am    2  VAL2       -0.3022
     10 N           0.5059    1.9181   -0.5680 N.am    5  ASP5       -0.3021
     11 N           1.2672   -2.7982    0.1696 N.am    3  LEU3       -0.3025
     12 N          -1.0907   -0.3213   -0.1990 N.am    4  TRP4       -0.3022
     13 NE1        -5.6549   -0.6121    0.0237 N.ar    4  TRP4       -0.3604
     14 CA          4.7218    1.0956    0.9764 C.3     1  PRO1        0.1023
     15 CB          5.3241    1.7072    2.2433 C.3     1  PRO1       -0.0243
     16 CG          4.1119    2.2483    2.9920 C.3     1  PRO1       -0.0350
     17 CD          3.2183    2.7492    1.8696 C.3     1  PRO1        0.0156
     18 C           4.4183   -0.4104    1.1334 C.2     1  PRO1        0.2342
     19 C           2.9041    1.9181   -0.4847 C.2     5  ASP5        0.2369
     20 CA          3.6786   -2.4114   -0.1236 C.3     2  VAL2        0.1017
     21 CA          1.6633    2.8263   -0.6664 C.3     5  ASP5        0.1047
     22 CB          4.5569   -3.3861   -0.9406 C.3     2  VAL2       -0.0197
     23 CA         -0.1356   -2.5914   -0.1625 C.3     3  LEU3        0.0996
     24 C           2.2436   -2.3187   -0.6798 C.2     2  VAL2        0.2342
     25 CB          1.6682    3.4953   -2.0305 C.3     5  ASP5        0.0138
     26 CA         -1.5440    0.9463    0.3865 C.3     4  TRP4        0.1034
     27 CB         -1.0150   -3.7606    0.2986 C.3     3  LEU3       -0.0236
     28 CG         -0.8984   -5.0263   -0.5781 C.3     3  LEU3       -0.0446
     29 C          -0.4145    1.9919    0.4543 C.2     4  TRP4        0.2343
     30 CB         -2.7069    1.5596   -0.4106 C.3     4  TRP4        0.0013
     31 C          -0.5533   -1.3127    0.5874 C.2     3  LEU3        0.2340
     32 CG1         5.8636   -3.6824   -0.1943 C.3     2  VAL2       -0.0605
     33 CG2         4.8801   -2.9106   -2.3600 C.3     2  VAL2       -0.0605
     34 CG         -3.8979    0.6501   -0.5168 C.ar    4  TRP4       -0.0201
     35 CG          2.7810    4.5326   -2.1230 C.2     5  ASP5        0.0440
     36 CD1         0.4610   -5.7195   -0.4593 C.3     3  LEU3       -0.0626
     37 CD2        -2.0036   -6.0164   -0.1983 C.3     3  LEU3       -0.0626
     38 CD2        -4.4323    0.0665   -1.7112 C.ar    4  TRP4        0.0029
     39 CD1        -4.6892    0.2142    0.5288 C.ar    4  TRP4        0.0060
     40 CE2        -5.5236   -0.7205   -1.3405 C.ar    4  TRP4        0.0467
     41 CE3        -4.0890    0.1343   -3.0776 C.ar    4  TRP4       -0.0523
     42 CZ2        -6.2851   -1.4464   -2.2647 C.ar    4  TRP4       -0.0378
     43 CZ3        -4.8423   -0.5817   -4.0155 C.ar    4  TRP4       -0.0611
     44 CH2        -5.9232   -1.3612   -3.6120 C.ar    4  TRP4       -0.0598
     45 H           3.9941   -0.4469   -0.8619 H       2  VAL2        0.1495
     46 H           0.5965    1.0459   -1.0749 H       5  ASP5        0.1495
     47 H           1.4872   -2.7764    1.1625 H       3  LEU3        0.1495
     48 H          -1.0994   -0.4223   -1.2070 H       4  TRP4        0.1495
     49 HE1        -6.3669   -1.0759    0.5698 H       4  TRP4        0.1653
     50 HA          5.3992    1.2288    0.1243 H       1  PRO1        0.0597
     51 HB1         5.9802    2.5433    1.9694 H       1  PRO1        0.0288
     52 HB2         5.9083    1.0046    2.8440 H       1  PRO1        0.0288
     53 HG1         4.3687    3.0339    3.7076 H       1  PRO1        0.0281
     54 HG2         3.6152    1.4368    3.5370 H       1  PRO1        0.0281
     55 HD1         2.1614    2.7338    2.1460 H       1  PRO1        0.0465
     56 HD2         3.5005    3.7615    1.5616 H       1  PRO1        0.0465
     57 HA          3.6113   -2.8084    0.8963 H       2  VAL2        0.0597
     58 HA          1.5952    3.5812    0.1198 H       5  ASP5        0.0598
     59 HB          4.0108   -4.3351   -1.0310 H       2  VAL2        0.0318
     60 HA         -0.2582   -2.4424   -1.2407 H       3  LEU3        0.0594
     61 HB1         0.7100    4.0005   -2.2046 H       5  ASP5        0.0348
     62 HB2         1.8013    2.7636   -2.8369 H       5  ASP5        0.0348
     63 HA         -1.8564    0.7494    1.4199 H       4  TRP4        0.0598
     64 HB1        -2.0616   -3.4256    0.2808 H       3  LEU3        0.0290
     65 HB2        -0.7946   -4.0124    1.3449 H       3  LEU3        0.0290
     66 HG         -1.0500   -4.7459   -1.6274 H       3  LEU3        0.0296
     67 HB1        -2.3623    1.8353   -1.4155 H       4  TRP4        0.0337
     68 HB2        -3.0268    2.4975    0.0632 H       4  TRP4        0.0337
     69 HG11        6.4868   -2.7863   -0.1044 H       2  VAL2        0.0233
     70 HG12        6.4468   -4.4453   -0.7213 H       2  VAL2        0.0233
     71 HG13        5.6617   -4.0592    0.8139 H       2  VAL2        0.0233
     72 HG21        5.4080   -1.9518   -2.3578 H       2  VAL2        0.0233
     73 HG22        3.9748   -2.8042   -2.9636 H       2  VAL2        0.0233
     74 HG23        5.5200   -3.6393   -2.8706 H       2  VAL2        0.0233
     75 HD11        0.7337   -5.8854    0.5881 H       3  LEU3        0.0232
     76 HD12        1.2515   -5.1325   -0.9342 H       3  LEU3        0.0232
     77 HD13        0.4493   -6.6920   -0.9619 H       3  LEU3        0.0232
     78 HD21       -1.9110   -6.3338    0.8457 H       3  LEU3        0.0232
     79 HD22       -1.9605   -6.9095   -0.8305 H       3  LEU3        0.0232
     80 HD23       -2.9927   -5.5650   -0.3313 H       3  LEU3        0.0232
     81 HD1        -4.6373    0.4164    1.5909 H       4  TRP4        0.0810
     82 HE3        -3.2535    0.7445   -3.4091 H       4  TRP4        0.0624
     83 HZ2        -7.1301   -2.0511   -1.9532 H       4  TRP4        0.0638
     84 HZ3        -4.5795   -0.5223   -5.0688 H       4  TRP4        0.0618
     85 HH2        -6.4969   -1.9083   -4.3562 H       4  TRP4        0.0618
@<TRIPOS>BOND
     1     1    18    2
     2     2    19    2
     3     3    24    2
     4     4    29    2
     5     5    31    2
     6     6    35   ar
     7     7    35   ar
     8     8    14    1
     9     8    17    1
    10     8    19   am
    11     9    18   am
    12     9    20    1
    13    10    21    1
    14    10    29   am
    15    11    23    1
    16    11    24   am
    17    12    26    1
    18    12    31   am
    19    13    39   ar
    20    13    40   ar
    21    14    15    1
    22    14    18    1
    23    15    16    1
    24    16    17    1
    25    19    21    1
    26    20    22    1
    27    20    24    1
    28    21    25    1
    29    22    32    1
    30    22    33    1
    31    23    27    1
    32    23    31    1
    33    25    35    1
    34    26    29    1
    35    26    30    1
    36    27    28    1
    37    28    36    1
    38    28    37    1
    39    30    34    1
    40    34    38   ar
    41    34    39   ar
    42    38    40   ar
    43    38    41   ar
    44    40    42   ar
    45    41    43   ar
    46    42    44   ar
    47    43    44   ar
    48     9    45    1
    49    10    46    1
    50    11    47    1
    51    12    48    1
    52    13    49    1
    53    14    50    1
    54    15    51    1
    55    15    52    1
    56    16    53    1
    57    16    54    1
    58    17    55    1
    59    17    56    1
    60    20    57    1
    61    21    58    1
    62    22    59    1
    63    23    60    1
    64    25    61    1
    65    25    62    1
    66    26    63    1
    67    27    64    1
    68    27    65    1
    69    28    66    1
    70    30    67    1
    71    30    68    1
    72    32    69    1
    73    32    70    1
    74    32    71    1
    75    33    72    1
    76    33    73    1
    77    33    74    1
    78    36    75    1
    79    36    76    1
    80    36    77    1
    81    37    78    1
    82    37    79    1
    83    37    80    1
    84    39    81    1
    85    41    82    1
    86    42    83    1
    87    43    84    1
    88    44    85    1
@<TRIPOS>MOLECULE
16219006
 85 88 0 0 0
SMALL
GASTEIGER

@<TRIPOS>ATOM
      1 O           4.2511   -0.9914    2.2750 O.2     1  PRO1       -0.2738
      2 O           3.2379    1.1048   -1.3337 O.2     5  ASP5       -0.2735
      3 O           1.9366   -1.8325   -1.7432 O.2     2  VAL2       -0.2738
      4 O          -0.5639    2.9799    1.1493 O.2     4  TRP4       -0.2738
      5 O          -0.6826   -1.2634    1.7987 O.2     3  LEU3       -0.2738
      6 OD1         3.5728    4.6831   -1.0378 O.co2   5  ASP5       -0.5497
      7 OD2         3.1941    4.8727   -3.2777 O.co2   5  ASP5       -0.5497
      8 N           3.4735    1.8358    0.7978 N.am    1  PRO1       -0.2884
      9 N           4.1632   -1.0920   -0.0121 N.am    2  VAL2       -0.3022
     10 N           0.5210    1.9523   -0.5921 N.am    5  ASP5       -0.3021
     11 N           1.1911   -2.8072    0.1812 N.am    3  LEU3       -0.3025
     12 N          -1.1021   -0.3159   -0.2556 N.am    4  TRP4       -0.3022
     13 NE1        -1.9747    1.6739   -4.1458 N.ar    4  TRP4       -0.3604
     14 CA          4.6967    1.0667    1.0162 C.3     1  PRO1        0.1023
     15 CB          5.3096    1.6778    2.2782 C.3     1  PRO1       -0.0243
     16 CG          4.1077    2.2520    3.0195 C.3     1  PRO1       -0.0350
     17 CD          3.2252    2.7591    1.8908 C.3     1  PRO1        0.0156
     18 C           4.3606   -0.4317    1.1853 C.2     1  PRO1        0.2342
     19 C           2.9026    1.9147   -0.4568 C.2     5  ASP5        0.2369
     20 CA          3.6129   -2.4381   -0.0676 C.3     2  VAL2        0.1017
     21 CA          1.6854    2.8510   -0.6546 C.3     5  ASP5        0.1047
     22 CB          4.5230   -3.4021   -0.8607 C.3     2  VAL2       -0.0197
     23 CA         -0.2004   -2.5873   -0.1817 C.3     3  LEU3        0.0996
     24 C           2.1870   -2.3236   -0.6442 C.2     2  VAL2        0.2342
     25 CB          1.7395    3.5304   -2.0130 C.3     5  ASP5        0.0138
     26 CA         -1.5778    0.9720    0.2619 C.3     4  TRP4        0.1034
     27 CB         -1.0786   -3.7873    0.1893 C.3     3  LEU3       -0.0236
     28 CG         -0.7319   -5.0859   -0.5694 C.3     3  LEU3       -0.0446
     29 C          -0.4694    2.0440    0.3570 C.2     4  TRP4        0.2343
     30 CB         -2.7816    1.4887   -0.5457 C.3     4  TRP4        0.0013
     31 C          -0.6822   -1.3331    0.5736 C.2     3  LEU3        0.2340
     32 CG1         4.7655   -2.9944   -2.3164 C.3     2  VAL2       -0.0605
     33 CG2         3.9935   -4.8387   -0.8028 C.3     2  VAL2       -0.0605
     34 CG         -2.4934    1.8296   -1.9813 C.ar    4  TRP4       -0.0201
     35 CG          2.9541    4.4459   -2.1126 C.2     5  ASP5        0.0440
     36 CD1        -1.6837   -6.2032   -0.1359 C.3     3  LEU3       -0.0626
     37 CD2        -0.7926   -4.9206   -2.0896 C.3     3  LEU3       -0.0626
     38 CD2        -2.4138    3.1494   -2.5374 C.ar    4  TRP4        0.0029
     39 CD1        -2.2675    0.9472   -3.0223 C.ar    4  TRP4        0.0060
     40 CE2        -2.0914    3.0175   -3.8875 C.ar    4  TRP4        0.0467
     41 CE3        -2.5714    4.4487   -2.0115 C.ar    4  TRP4       -0.0523
     42 CZ2        -1.9136    4.1154   -4.7373 C.ar    4  TRP4       -0.0378
     43 CZ3        -2.4095    5.5579   -2.8496 C.ar    4  TRP4       -0.0611
     44 CH2        -2.0829    5.3907   -4.1923 C.ar    4  TRP4       -0.0598
     45 H           3.9605   -0.4792   -0.8127 H       2  VAL2        0.1495
     46 H           0.5743    1.1430   -1.1931 H       5  ASP5        0.1495
     47 H           1.3931   -2.8190    1.1776 H       3  LEU3        0.1495
     48 H          -0.8258   -0.3463   -1.2289 H       4  TRP4        0.1495
     49 HE1        -1.7116    1.2896   -5.0424 H       4  TRP4        0.1653
     50 HA          5.3790    1.1783    0.1648 H       1  PRO1        0.0597
     51 HB1         5.9838    2.4967    1.9976 H       1  PRO1        0.0288
     52 HB2         5.8777    0.9683    2.8868 H       1  PRO1        0.0288
     53 HG1         4.3806    3.0401    3.7266 H       1  PRO1        0.0281
     54 HG2         3.5943    1.4570    3.5731 H       1  PRO1        0.0281
     55 HD1         2.1668    2.7658    2.1638 H       1  PRO1        0.0465
     56 HD2         3.5272    3.7630    1.5750 H       1  PRO1        0.0465
     57 HA          3.5385   -2.8261    0.9555 H       2  VAL2        0.0597
     58 HA          1.6070    3.5963    0.1396 H       5  ASP5        0.0598
     59 HB          5.5042   -3.3989   -0.3656 H       2  VAL2        0.0318
     60 HA         -0.2844   -2.3994   -1.2565 H       3  LEU3        0.0594
     61 HB1         0.8380    4.1347   -2.1691 H       5  ASP5        0.0348
     62 HB2         1.7803    2.7930   -2.8245 H       5  ASP5        0.0348
     63 HA         -1.9143    0.8000    1.2927 H       4  TRP4        0.0598
     64 HB1        -2.1291   -3.5269    0.0016 H       3  LEU3        0.0290
     65 HB2        -1.0016   -3.9780    1.2684 H       3  LEU3        0.0290
     66 HG          0.2867   -5.3928   -0.3010 H       3  LEU3        0.0296
     67 HB1        -3.1949    2.3709   -0.0412 H       4  TRP4        0.0337
     68 HB2        -3.5762    0.7305   -0.5296 H       4  TRP4        0.0337
     69 HG11        3.8555   -3.0680   -2.9190 H       2  VAL2        0.0233
     70 HG12        5.5121   -3.6534   -2.7742 H       2  VAL2        0.0233
     71 HG13        5.1469   -1.9713   -2.3881 H       2  VAL2        0.0233
     72 HG21        3.0362   -4.9381   -1.3250 H       2  VAL2        0.0233
     73 HG22        3.8516   -5.1612    0.2341 H       2  VAL2        0.0233
     74 HG23        4.7023   -5.5306   -1.2708 H       2  VAL2        0.0233
     75 HD11       -2.7211   -5.9620   -0.3923 H       3  LEU3        0.0232
     76 HD12       -1.6291   -6.3639    0.9458 H       3  LEU3        0.0232
     77 HD13       -1.4248   -7.1472   -0.6270 H       3  LEU3        0.0232
     78 HD21       -1.7551   -4.5047   -2.4061 H       3  LEU3        0.0232
     79 HD22       -0.6579   -5.8841   -2.5928 H       3  LEU3        0.0232
     80 HD23        0.0016   -4.2599   -2.4508 H       3  LEU3        0.0232
     81 HD1        -2.2592   -0.1333   -3.0595 H       4  TRP4        0.0810
     82 HE3        -2.7967    4.5970   -0.9596 H       4  TRP4        0.0624
     83 HZ2        -1.6309    3.9902   -5.7769 H       4  TRP4        0.0638
     84 HZ3        -2.5143    6.5588   -2.4395 H       4  TRP4        0.0618
     85 HH2        -1.9313    6.2648   -4.8209 H       4  TRP4        0.0618
@<TRIPOS>BOND
     1     1    18    2
     2     2    19    2
     3     3    24    2
     4     4    29    2
     5     5    31    2
     6     6    35   ar
     7     7    35   ar
     8     8    14    1
     9     8    17    1
    10     8    19   am
    11     9    18   am
    12     9    20    1
    13    10    21    1
    14    10    29   am
    15    11    23    1
    16    11    24   am
    17    12    26    1
    18    12    31   am
    19    13    39   ar
    20    13    40   ar
    21    14    15    1
    22    14    18    1
    23    15    16    1
    24    16    17    1
    25    19    21    1
    26    20    22    1
    27    20    24    1
    28    21    25    1
    29    22    32    1
    30    22    33    1
    31    23    27    1
    32    23    31    1
    33    25    35    1
    34    26    29    1
    35    26    30    1
    36    27    28    1
    37    28    36    1
    38    28    37    1
    39    30    34    1
    40    34    38   ar
    41    34    39   ar
    42    38    40   ar
    43    38    41   ar
    44    40    42   ar
    45    41    43   ar
    46    42    44   ar
    47    43    44   ar
    48     9    45    1
    49    10    46    1
    50    11    47    1
    51    12    48    1
    52    13    49    1
    53    14    50    1
    54    15    51    1
    55    15    52    1
    56    16    53    1
    57    16    54    1
    58    17    55    1
    59    17    56    1
    60    20    57    1
    61    21    58    1
    62    22    59    1
    63    23    60    1
    64    25    61    1
    65    25    62    1
    66    26    63    1
    67    27    64    1
    68    27    65    1
    69    28    66    1
    70    30    67    1
    71    30    68    1
    72    32    69    1
    73    32    70    1
    74    32    71    1
    75    33    72    1
    76    33    73    1
    77    33    74    1
    78    36    75    1
    79    36    76    1
    80    36    77    1
    81    37    78    1
    82    37    79    1
    83    37    80    1
    84    39    81    1
    85    41    82    1
    86    42    83    1
    87    43    84    1
    88    44    85    1
@<TRIPOS>MOLECULE
16219006
 85 88 0 0 0
SMALL
GASTEIGER

@<TRIPOS>ATOM
      1 O           3.7044   -0.8540    2.1872 O.2     1  PRO1       -0.2738
      2 O           3.2756    1.2727   -1.4666 O.2     5  ASP5       -0.2735
      3 O           2.1782   -2.0004   -1.7859 O.2     2  VAL2       -0.2738
      4 O          -0.3046    2.8505    1.4262 O.2     4  TRP4       -0.2738
      5 O          -0.2761   -1.1518    1.7814 O.2     3  LEU3       -0.2738
      6 OD1         0.5093    5.1082   -3.4488 O.co2   5  ASP5       -0.5497
      7 OD2        -0.5565    4.4767   -1.5434 O.co2   5  ASP5       -0.5497
      8 N           3.4661    1.9111    0.6899 N.am    1  PRO1       -0.2884
      9 N           4.2874   -1.2237    0.0036 N.am    2  VAL2       -0.3022
     10 N           0.5106    1.9406   -0.5257 N.am    5  ASP5       -0.3021
     11 N           1.2833   -2.7898    0.1719 N.am    3  LEU3       -0.3025
     12 N          -1.0945   -0.2491   -0.1654 N.am    4  TRP4       -0.3022
     13 NE1        -5.6941   -0.3986   -1.2697 N.ar    4  TRP4       -0.3604
     14 CA          4.6129    1.0367    0.9143 C.3     1  PRO1        0.1023
     15 CB          5.2740    1.6047    2.1694 C.3     1  PRO1       -0.0243
     16 CG          4.1186    2.2380    2.9372 C.3     1  PRO1       -0.0350
     17 CD          3.1924    2.7510    1.8435 C.3     1  PRO1        0.0156
     18 C           4.1621   -0.4278    1.1285 C.2     1  PRO1        0.2342
     19 C           2.8724    2.0036   -0.5515 C.2     5  ASP5        0.2369
     20 CA          3.7238   -2.5736   -0.0067 C.3     2  VAL2        0.1017
     21 CA          1.6037    2.8850   -0.7026 C.3     5  ASP5        0.1047
     22 CB          4.5819   -3.5544   -0.8375 C.3     2  VAL2       -0.0197
     23 CA         -0.0803   -2.4747   -0.2342 C.3     3  LEU3        0.0996
     24 C           2.3334   -2.4199   -0.6407 C.2     2  VAL2        0.2342
     25 CB          1.5657    3.5297   -2.0801 C.3     5  ASP5        0.0138
     26 CA         -1.5278    1.0066    0.4583 C.3     4  TRP4        0.1034
     27 CB         -1.0429   -3.6254    0.0728 C.3     3  LEU3       -0.0236
     28 CG         -0.7094   -4.9351   -0.6710 C.3     3  LEU3       -0.0446
     29 C          -0.3715    2.0148    0.5257 C.2     4  TRP4        0.2343
     30 CB         -2.7430    1.5931   -0.2689 C.3     4  TRP4        0.0013
     31 C          -0.4839   -1.2334    0.5707 C.2     3  LEU3        0.2340
     32 CG1         3.9314   -4.9432   -0.9133 C.3     2  VAL2       -0.0605
     33 CG2         5.9888   -3.6983   -0.2475 C.3     2  VAL2       -0.0605
     34 CG         -3.9198    0.6423   -0.3921 C.ar    4  TRP4       -0.0201
     35 CG          0.3931    4.4625   -2.3673 C.2     5  ASP5        0.0440
     36 CD1        -1.6902   -6.0328   -0.2548 C.3     3  LEU3       -0.0626
     37 CD2        -0.7340   -4.7698   -2.1917 C.3     3  LEU3       -0.0626
     38 CD2        -4.3998   -0.3428    0.5449 C.ar    4  TRP4        0.0029
     39 CD1        -4.7563    0.5704   -1.4929 C.ar    4  TRP4        0.0060
     40 CE2        -5.4898   -0.9880   -0.0454 C.ar    4  TRP4        0.0467
     41 CE3        -4.0137   -0.7708    1.8347 C.ar    4  TRP4       -0.0523
     42 CZ2        -6.1896   -2.0319    0.5769 C.ar    4  TRP4       -0.0378
     43 CZ3        -4.6872   -1.8230    2.4643 C.ar    4  TRP4       -0.0611
     44 CH2        -5.7613   -2.4441    1.8416 C.ar    4  TRP4       -0.0598
     45 H           4.2285   -0.7121   -0.8806 H       2  VAL2        0.1495
     46 H           0.4295    1.1905   -1.1956 H       5  ASP5        0.1495
     47 H           1.4536   -2.7319    1.1742 H       3  LEU3        0.1495
     48 H          -1.2017   -0.3439   -1.1675 H       4  TRP4        0.1495
     49 HE1        -6.4309   -0.6525   -1.9116 H       4  TRP4        0.1653
     50 HA          5.3016    1.0791    0.0629 H       1  PRO1        0.0597
     51 HB1         5.9905    2.3847    1.8848 H       1  PRO1        0.0288
     52 HB2         5.8066    0.8551    2.7624 H       1  PRO1        0.0288
     53 HG1         4.4490    3.0330    3.6116 H       1  PRO1        0.0281
     54 HG2         3.6059    1.4791    3.5389 H       1  PRO1        0.0281
     55 HD1         2.1439    2.6845    2.1362 H       1  PRO1        0.0465
     56 HD2         3.4296    3.7861    1.5751 H       1  PRO1        0.0465
     57 HA          3.6306   -2.9478    1.0194 H       2  VAL2        0.0597
     58 HA          1.5706    3.6607    0.0673 H       5  ASP5        0.0598
     59 HB          4.6832   -3.1730   -1.8622 H       2  VAL2        0.0318
     60 HA         -0.1142   -2.2282   -1.2994 H       3  LEU3        0.0594
     61 HB1         1.5684    2.7636   -2.8649 H       5  ASP5        0.0348
     62 HB2         2.4844    4.1181   -2.2137 H       5  ASP5        0.0348
     63 HA         -1.7658    0.8054    1.5034 H       4  TRP4        0.0598
     64 HB1        -2.0663   -3.3121   -0.1744 H       3  LEU3        0.0290
     65 HB2        -1.0402   -3.8230    1.1537 H       3  LEU3        0.0290
     66 HG          0.2963   -5.2635   -0.3803 H       3  LEU3        0.0296
     67 HB1        -2.4397    1.8948   -1.2828 H       4  TRP4        0.0337
     68 HB2        -3.0797    2.5072    0.2329 H       4  TRP4        0.0337
     69 HG11        3.7929   -5.3716    0.0856 H       2  VAL2        0.0233
     70 HG12        4.5560   -5.6327   -1.4919 H       2  VAL2        0.0233
     71 HG13        2.9541   -4.9044   -1.4042 H       2  VAL2        0.0233
     72 HG21        5.9508   -4.0777    0.7799 H       2  VAL2        0.0233
     73 HG22        6.5173   -2.7401   -0.2378 H       2  VAL2        0.0233
     74 HG23        6.5876   -4.3974   -0.8414 H       2  VAL2        0.0233
     75 HD11       -2.7177   -5.7738   -0.5317 H       3  LEU3        0.0232
     76 HD12       -1.6591   -6.1926    0.8280 H       3  LEU3        0.0232
     77 HD13       -1.4375   -6.9824   -0.7388 H       3  LEU3        0.0232
     78 HD21       -1.7009   -4.3857   -2.5334 H       3  LEU3        0.0232
     79 HD22       -0.5552   -5.7292   -2.6890 H       3  LEU3        0.0232
     80 HD23        0.0465   -4.0837   -2.5335 H       3  LEU3        0.0232
     81 HD1        -4.7587    1.1366   -2.4157 H       4  TRP4        0.0810
     82 HE3        -3.1887   -0.3085    2.3644 H       4  TRP4        0.0624
     83 HZ2        -7.0350   -2.5113    0.0970 H       4  TRP4        0.0638
     84 HZ3        -4.3591   -2.1475    3.4480 H       4  TRP4        0.0618
     85 HH2        -6.2766   -3.2558    2.3485 H       4  TRP4        0.0618
@<TRIPOS>BOND
     1     1    18    2
     2     2    19    2
     3     3    24    2
     4     4    29    2
     5     5    31    2
     6     6    35   ar
     7     7    35   ar
     8     8    14    1
     9     8    17    1
    10     8    19   am
    11     9    18   am
    12     9    20    1
    13    10    21    1
    14    10    29   am
    15    11    23    1
    16    11    24   am
    17    12    26    1
    18    12    31   am
    19    13    39   ar
    20    13    40   ar
    21    14    15    1
    22    14    18    1
    23    15    16    1
    24    16    17    1
    25    19    21    1
    26    20    22    1
    27    20    24    1
    28    21    25    1
    29    22    32    1
    30    22    33    1
    31    23    27    1
    32    23    31    1
    33    25    35    1
    34    26    29    1
    35    26    30    1
    36    27    28    1
    37    28    36    1
    38    28    37    1
    39    30    34    1
    40    34    38   ar
    41    34    39   ar
    42    38    40   ar
    43    38    41   ar
    44    40    42   ar
    45    41    43   ar
    46    42    44   ar
    47    43    44   ar
    48     9    45    1
    49    10    46    1
    50    11    47    1
    51    12    48    1
    52    13    49    1
    53    14    50    1
    54    15    51    1
    55    15    52    1
    56    16    53    1
    57    16    54    1
    58    17    55    1
    59    17    56    1
    60    20    57    1
    61    21    58    1
    62    22    59    1
    63    23    60    1
    64    25    61    1
    65    25    62    1
    66    26    63    1
    67    27    64    1
    68    27    65    1
    69    28    66    1
    70    30    67    1
    71    30    68    1
    72    32    69    1
    73    32    70    1
    74    32    71    1
    75    33    72    1
    76    33    73    1
    77    33    74    1
    78    36    75    1
    79    36    76    1
    80    36    77    1
    81    37    78    1
    82    37    79    1
    83    37    80    1
    84    39    81    1
    85    41    82    1
    86    42    83    1
    87    43    84    1
    88    44    85    1
@<TRIPOS>MOLECULE
16219006
 85 88 0 0 0
SMALL
GASTEIGER

@<TRIPOS>ATOM
      1 O           4.3050   -0.9992    2.2593 O.2     1  PRO1       -0.2738
      2 O           3.2831    1.1456   -1.3972 O.2     5  ASP5       -0.2735
      3 O           2.1340   -2.0401   -1.8651 O.2     2  VAL2       -0.2738
      4 O          -0.3791    2.7769    1.4291 O.2     4  TRP4       -0.2738
      5 O          -0.2514   -1.2334    1.7353 O.2     3  LEU3       -0.2738
      6 OD1         0.8874    5.5166   -1.7468 O.co2   5  ASP5       -0.5497
      7 OD2        -0.6260    4.0080   -2.5735 O.co2   5  ASP5       -0.5497
      8 N           3.4334    1.8320    0.7498 N.am    1  PRO1       -0.2884
      9 N           4.1681   -1.1134   -0.0224 N.am    2  VAL2       -0.3022
     10 N           0.4641    1.8223   -0.4847 N.am    5  ASP5       -0.3021
     11 N           1.2720   -2.8422    0.1024 N.am    3  LEU3       -0.3025
     12 N          -1.1691   -0.3403   -0.1675 N.am    4  TRP4       -0.3022
     13 NE1        -5.5118   -0.9733   -0.0385 N.ar    4  TRP4       -0.3604
     14 CA          4.6596    1.0704    0.9908 C.3     1  PRO1        0.1023
     15 CB          5.2409    1.7005    2.2581 C.3     1  PRO1       -0.0243
     16 CG          4.0095    2.2013    3.0042 C.3     1  PRO1       -0.0350
     17 CD          3.0958    2.6753    1.8850 C.3     1  PRO1        0.0156
     18 C           4.3602   -0.4385    1.1664 C.2     1  PRO1        0.2342
     19 C           2.8536    1.8842   -0.5009 C.2     5  ASP5        0.2369
     20 CA          3.7006   -2.4963   -0.0608 C.3     2  VAL2        0.1017
     21 CA          1.5800    2.7443   -0.6902 C.3     5  ASP5        0.1047
     22 CB          4.6438   -3.4046   -0.8788 C.3     2  VAL2       -0.0197
     23 CA         -0.0999   -2.5458   -0.2893 C.3     3  LEU3        0.0996
     24 C           2.3083   -2.4372   -0.7126 C.2     2  VAL2        0.2342
     25 CB          1.5637    3.2994   -2.1072 C.3     5  ASP5        0.0138
     26 CA         -1.5980    0.9037    0.4883 C.3     4  TRP4        0.1034
     27 CB         -1.0507   -3.7012    0.0407 C.3     3  LEU3       -0.0236
     28 CG         -0.7294   -5.0196   -0.6915 C.3     3  LEU3       -0.0446
     29 C          -0.4298    1.9101    0.5593 C.2     4  TRP4        0.2343
     30 CB         -2.7886    1.5406   -0.2408 C.3     4  TRP4        0.0013
     31 C          -0.5007   -1.3126    0.5326 C.2     3  LEU3        0.2340
     32 CG1         4.0929   -4.8337   -0.9771 C.3     2  VAL2       -0.0605
     33 CG2         6.0427   -3.4535   -0.2544 C.3     2  VAL2       -0.0605
     34 CG         -4.0197    0.6660   -0.3275 C.ar    4  TRP4       -0.0201
     35 CG          0.4998    4.3793   -2.1369 C.2     5  ASP5        0.0440
     36 CD1        -1.7097   -6.1078   -0.2468 C.3     3  LEU3       -0.0626
     37 CD2        -0.7762   -4.8721   -2.2129 C.3     3  LEU3       -0.0626
     38 CD2        -5.1574    0.9115   -1.1671 C.ar    4  TRP4        0.0029
     39 CD1        -4.2948   -0.4989    0.3673 C.ar    4  TRP4        0.0060
     40 CE2        -6.0660   -0.1291   -0.9692 C.ar    4  TRP4        0.0467
     41 CE3        -5.4955    1.9307   -2.0808 C.ar    4  TRP4       -0.0523
     42 CZ2        -7.2921   -0.2067   -1.6407 C.ar    4  TRP4       -0.0378
     43 CZ3        -6.7217    1.8743   -2.7546 C.ar    4  TRP4       -0.0611
     44 CH2        -7.6046    0.8190   -2.5373 C.ar    4  TRP4       -0.0598
     45 H           3.9512   -0.5268   -0.8374 H       2  VAL2        0.1495
     46 H           0.3473    1.0939   -1.1740 H       5  ASP5        0.1495
     47 H           1.4462   -2.7952    1.1040 H       3  LEU3        0.1495
     48 H          -1.2742   -0.4048   -1.1732 H       4  TRP4        0.1495
     49 HE1        -5.9500   -1.8164    0.3025 H       4  TRP4        0.1653
     50 HA          5.3540    1.1877    0.1502 H       1  PRO1        0.0597
     51 HB1         5.8706    2.5569    1.9864 H       1  PRO1        0.0288
     52 HB2         5.8454    1.0155    2.8598 H       1  PRO1        0.0288
     53 HG1         4.2404    2.9939    3.7212 H       1  PRO1        0.0281
     54 HG2         3.5393    1.3748    3.5496 H       1  PRO1        0.0281
     55 HD1         2.0423    2.5774    2.1488 H       1  PRO1        0.0465
     56 HD2         3.3089    3.7149    1.6128 H       1  PRO1        0.0465
     57 HA          3.6117   -2.8880    0.9590 H       2  VAL2        0.0597
     58 HA          1.5454    3.5495    0.0472 H       5  ASP5        0.0598
     59 HB          4.7424   -3.0087   -1.8984 H       2  VAL2        0.0318
     60 HA         -0.1540   -2.2976   -1.3536 H       3  LEU3        0.0594
     61 HB1         1.3521    2.5271   -2.8563 H       5  ASP5        0.0348
     62 HB2         2.5320    3.7460   -2.3648 H       5  ASP5        0.0348
     63 HA         -1.8664    0.6635    1.5256 H       4  TRP4        0.0598
     64 HB1        -2.0789   -3.3939   -0.1938 H       3  LEU3        0.0290
     65 HB2        -1.0319   -3.8882    1.1233 H       3  LEU3        0.0290
     66 HG          0.2792   -5.3478   -0.4107 H       3  LEU3        0.0296
     67 HB1        -2.4860    1.8111   -1.2614 H       4  TRP4        0.0337
     68 HB2        -3.0672    2.4767    0.2601 H       4  TRP4        0.0337
     69 HG11        3.9341   -5.2665    0.0165 H       2  VAL2        0.0233
     70 HG12        4.7880   -5.4827   -1.5208 H       2  VAL2        0.0233
     71 HG13        3.1394   -4.8596   -1.5144 H       2  VAL2        0.0233
     72 HG21        6.0036   -3.8226    0.7762 H       2  VAL2        0.0233
     73 HG22        6.5096   -2.4635   -0.2445 H       2  VAL2        0.0233
     74 HG23        6.6995   -4.1192   -0.8255 H       2  VAL2        0.0233
     75 HD11       -2.7404   -5.8456   -0.5093 H       3  LEU3        0.0232
     76 HD12       -1.6622   -6.2550    0.8374 H       3  LEU3        0.0232
     77 HD13       -1.4715   -7.0646   -0.7232 H       3  LEU3        0.0232
     78 HD21       -1.7384   -4.4667   -2.5431 H       3  LEU3        0.0232
     79 HD22       -0.6316   -5.8415   -2.7020 H       3  LEU3        0.0232
     80 HD23        0.0162   -4.2095   -2.5738 H       3  LEU3        0.0232
     81 HD1        -3.7222   -1.0372    1.1108 H       4  TRP4        0.0810
     82 HE3        -4.8111    2.7574   -2.2590 H       4  TRP4        0.0624
     83 HZ2        -7.9806   -1.0274   -1.4721 H       4  TRP4        0.0638
     84 HZ3        -6.9804    2.6655   -3.4535 H       4  TRP4        0.0618
     85 HH2        -8.5507    0.7935   -3.0719 H       4  TRP4        0.0618
@<TRIPOS>BOND
     1     1    18    2
     2     2    19    2
     3     3    24    2
     4     4    29    2
     5     5    31    2
     6     6    35   ar
     7     7    35   ar
     8     8    14    1
     9     8    17    1
    10     8    19   am
    11     9    18   am
    12     9    20    1
    13    10    21    1
    14    10    29   am
    15    11    23    1
    16    11    24   am
    17    12    26    1
    18    12    31   am
    19    13    39   ar
    20    13    40   ar
    21    14    15    1
    22    14    18    1
    23    15    16    1
    24    16    17    1
    25    19    21    1
    26    20    22    1
    27    20    24    1
    28    21    25    1
    29    22    32    1
    30    22    33    1
    31    23    27    1
    32    23    31    1
    33    25    35    1
    34    26    29    1
    35    26    30    1
    36    27    28    1
    37    28    36    1
    38    28    37    1
    39    30    34    1
    40    34    38   ar
    41    34    39   ar
    42    38    40   ar
    43    38    41   ar
    44    40    42   ar
    45    41    43   ar
    46    42    44   ar
    47    43    44   ar
    48     9    45    1
    49    10    46    1
    50    11    47    1
    51    12    48    1
    52    13    49    1
    53    14    50    1
    54    15    51    1
    55    15    52    1
    56    16    53    1
    57    16    54    1
    58    17    55    1
    59    17    56    1
    60    20    57    1
    61    21    58    1
    62    22    59    1
    63    23    60    1
    64    25    61    1
    65    25    62    1
    66    26    63    1
    67    27    64    1
    68    27    65    1
    69    28    66    1
    70    30    67    1
    71    30    68    1
    72    32    69    1
    73    32    70    1
    74    32    71    1
    75    33    72    1
    76    33    73    1
    77    33    74    1
    78    36    75    1
    79    36    76    1
    80    36    77    1
    81    37    78    1
    82    37    79    1
    83    37    80    1
    84    39    81    1
    85    41    82    1
    86    42    83    1
    87    43    84    1
    88    44    85    1
@<TRIPOS>MOLECULE
16219006
 85 88 0 0 0
SMALL
GASTEIGER

@<TRIPOS>ATOM
      1 O           4.3441   -1.1357    2.2486 O.2     1  PRO1       -0.2738
      2 O           3.4182    1.1281   -1.4536 O.2     5  ASP5       -0.2735
      3 O           2.1663   -2.6611   -1.9436 O.2     2  VAL2       -0.2738
      4 O          -0.4157    3.0261    1.2871 O.2     4  TRP4       -0.2738
      5 O          -0.3105   -1.0558    1.7300 O.2     3  LEU3       -0.2738
      6 OD1         0.3952    1.4446   -2.9192 O.co2   5  ASP5       -0.5497
      7 OD2         1.5259    2.7765   -4.3990 O.co2   5  ASP5       -0.5497
      8 N           3.4844    1.7246    0.7233 N.am    1  PRO1       -0.2884
      9 N           4.1044   -1.2351   -0.0237 N.am    2  VAL2       -0.3022
     10 N           0.5412    1.8754   -0.4410 N.am    5  ASP5       -0.3021
     11 N           1.2727   -2.6605    0.1669 N.am    3  LEU3       -0.3025
     12 N          -1.1834   -0.1865   -0.2055 N.am    4  TRP4       -0.3022
     13 NE1        -5.4714   -0.5683   -1.3591 N.ar    4  TRP4       -0.3604
     14 CA          4.6879    0.9330    0.9827 C.3     1  PRO1        0.1023
     15 CB          5.2592    1.5539    2.2595 C.3     1  PRO1       -0.0243
     16 CG          4.0206    2.0465    2.9993 C.3     1  PRO1       -0.0350
     17 CD          3.1168    2.5316    1.8763 C.3     1  PRO1        0.0156
     18 C           4.3561   -0.5693    1.1566 C.2     1  PRO1        0.2342
     19 C           2.9456    1.8210   -0.5479 C.2     5  ASP5        0.2369
     20 CA          3.7070   -2.6423   -0.0637 C.3     2  VAL2        0.1017
     21 CA          1.6935    2.7120   -0.7217 C.3     5  ASP5        0.1047
     22 CB          4.7172   -3.5084   -0.8487 C.3     2  VAL2       -0.0197
     23 CA         -0.0859   -2.3828   -0.2822 C.3     3  LEU3        0.0996
     24 C           2.3204   -2.6752   -0.7256 C.2     2  VAL2        0.2342
     25 CB          1.6062    3.3300   -2.1131 C.3     5  ASP5        0.0138
     26 CA         -1.5941    1.0697    0.4347 C.3     4  TRP4        0.1034
     27 CB         -1.0402   -3.5452    0.0272 C.3     3  LEU3       -0.0236
     28 CG         -0.7059   -4.8703   -0.6880 C.3     3  LEU3       -0.0446
     29 C          -0.4209    2.0748    0.5079 C.2     4  TRP4        0.2343
     30 CB         -2.7714    1.7128   -0.3101 C.3     4  TRP4        0.0013
     31 C          -0.5248   -1.1485    0.5199 C.2     3  LEU3        0.2340
     32 CG1         4.2410   -4.9664   -0.9369 C.3     2  VAL2       -0.0605
     33 CG2         6.1013   -3.4812   -0.1920 C.3     2  VAL2       -0.0605
     34 CG         -3.9507    0.7891   -0.4548 C.ar    4  TRP4       -0.0201
     35 CG          1.1582    2.4075   -3.2499 C.2     5  ASP5        0.0440
     36 CD1        -1.6566   -5.9718   -0.2088 C.3     3  LEU3       -0.0626
     37 CD2        -0.7904   -4.7516   -2.2100 C.3     3  LEU3       -0.0626
     38 CD2        -4.7692    0.2495    0.5911 C.ar    4  TRP4        0.0029
     39 CD1        -4.4249    0.2646   -1.6421 C.ar    4  TRP4        0.0060
     40 CE2        -5.7003   -0.6036   -0.0037 C.ar    4  TRP4        0.0467
     41 CE3        -4.7916    0.3894    1.9943 C.ar    4  TRP4       -0.0523
     42 CZ2        -6.6469   -1.3265    0.7332 C.ar    4  TRP4       -0.0378
     43 CZ3        -5.7286   -0.3285    2.7468 C.ar    4  TRP4       -0.0611
     44 CH2        -6.6413   -1.1746    2.1228 C.ar    4  TRP4       -0.0598
     45 H           3.9081   -0.6572   -0.8497 H       2  VAL2        0.1495
     46 H           0.3177    1.2690   -1.2405 H       5  ASP5        0.1495
     47 H           1.4759   -2.4075    1.1317 H       3  LEU3        0.1495
     48 H          -1.0726   -0.1791   -1.2182 H       4  TRP4        0.1495
     49 HE1        -5.9927   -1.0968   -2.0437 H       4  TRP4        0.1653
     50 HA          5.3997    1.0329    0.1545 H       1  PRO1        0.0597
     51 HB1         5.8895    2.4139    1.9997 H       1  PRO1        0.0288
     52 HB2         5.8601    0.8659    2.8609 H       1  PRO1        0.0288
     53 HG1         4.2451    2.8334    3.7252 H       1  PRO1        0.0281
     54 HG2         3.5449    1.2164    3.5336 H       1  PRO1        0.0281
     55 HD1         2.0596    2.4143    2.1173 H       1  PRO1        0.0465
     56 HD2         3.3219    3.5814    1.6370 H       1  PRO1        0.0465
     57 HA          3.6202   -3.0325    0.9576 H       2  VAL2        0.0597
     58 HA          1.7250    3.5343   -0.0020 H       5  ASP5        0.0598
     59 HB          4.8197   -3.1205   -1.8706 H       2  VAL2        0.0318
     60 HA         -0.0979   -2.1414   -1.3492 H       3  LEU3        0.0594
     61 HB1         2.5732    3.7802   -2.3753 H       5  ASP5        0.0348
     62 HB2         0.8718    4.1472   -2.0915 H       5  ASP5        0.0348
     63 HA         -1.8711    0.8411    1.4705 H       4  TRP4        0.0598
     64 HB1        -2.0650   -3.2431   -0.2278 H       3  LEU3        0.0290
     65 HB2        -1.0426   -3.7265    1.1113 H       3  LEU3        0.0290
     66 HG          0.3136   -5.1755   -0.4217 H       3  LEU3        0.0296
     67 HB1        -2.4442    2.0367   -1.3075 H       4  TRP4        0.0337
     68 HB2        -3.0927    2.6214    0.2142 H       4  TRP4        0.0337
     69 HG11        4.0842   -5.3925    0.0602 H       2  VAL2        0.0233
     70 HG12        4.9782   -5.5864   -1.4579 H       2  VAL2        0.0233
     71 HG13        3.3005   -5.0520   -1.4903 H       2  VAL2        0.0233
     72 HG21        6.0550   -3.8375    0.8429 H       2  VAL2        0.0233
     73 HG22        6.5204   -2.4705   -0.1869 H       2  VAL2        0.0233
     74 HG23        6.8011   -4.1236   -0.7378 H       2  VAL2        0.0233
     75 HD11       -2.6970   -5.7348   -0.4565 H       3  LEU3        0.0232
     76 HD12       -1.5871   -6.1033    0.8761 H       3  LEU3        0.0232
     77 HD13       -1.4081   -6.9310   -0.6759 H       3  LEU3        0.0232
     78 HD21       -1.7759   -4.3937   -2.5261 H       3  LEU3        0.0232
     79 HD22       -0.6158   -5.7235   -2.6846 H       3  LEU3        0.0232
     80 HD23       -0.0373   -4.0632   -2.6014 H       3  LEU3        0.0232
     81 HD1        -4.0865    0.4025   -2.6615 H       4  TRP4        0.0810
     82 HE3        -4.0800    1.0395    2.4945 H       4  TRP4        0.0624
     83 HZ2        -7.3559   -1.9894    0.2490 H       4  TRP4        0.0638
     84 HZ3        -5.7340   -0.2267    3.8287 H       4  TRP4        0.0618
     85 HH2        -7.3575   -1.7282    2.7248 H       4  TRP4        0.0618
@<TRIPOS>BOND
     1     1    18    2
     2     2    19    2
     3     3    24    2
     4     4    29    2
     5     5    31    2
     6     6    35   ar
     7     7    35   ar
     8     8    14    1
     9     8    17    1
    10     8    19   am
    11     9    18   am
    12     9    20    1
    13    10    21    1
    14    10    29   am
    15    11    23    1
    16    11    24   am
    17    12    26    1
    18    12    31   am
    19    13    39   ar
    20    13    40   ar
    21    14    15    1
    22    14    18    1
    23    15    16    1
    24    16    17    1
    25    19    21    1
    26    20    22    1
    27    20    24    1
    28    21    25    1
    29    22    32    1
    30    22    33    1
    31    23    27    1
    32    23    31    1
    33    25    35    1
    34    26    29    1
    35    26    30    1
    36    27    28    1
    37    28    36    1
    38    28    37    1
    39    30    34    1
    40    34    38   ar
    41    34    39   ar
    42    38    40   ar
    43    38    41   ar
    44    40    42   ar
    45    41    43   ar
    46    42    44   ar
    47    43    44   ar
    48     9    45    1
    49    10    46    1
    50    11    47    1
    51    12    48    1
    52    13    49    1
    53    14    50    1
    54    15    51    1
    55    15    52    1
    56    16    53    1
    57    16    54    1
    58    17    55    1
    59    17    56    1
    60    20    57    1
    61    21    58    1
    62    22    59    1
    63    23    60    1
    64    25    61    1
    65    25    62    1
    66    26    63    1
    67    27    64    1
    68    27    65    1
    69    28    66    1
    70    30    67    1
    71    30    68    1
    72    32    69    1
    73    32    70    1
    74    32    71    1
    75    33    72    1
    76    33    73    1
    77    33    74    1
    78    36    75    1
    79    36    76    1
    80    36    77    1
    81    37    78    1
    82    37    79    1
    83    37    80    1
    84    39    81    1
    85    41    82    1
    86    42    83    1
    87    43    84    1
    88    44    85    1
@<TRIPOS>MOLECULE
16219006
 85 88 0 0 0
SMALL
GASTEIGER

@<TRIPOS>ATOM
      1 O           4.2274   -1.1746    2.3406 O.2     1  PRO1       -0.2738
      2 O           3.2084    0.9175   -1.2431 O.2     5  ASP5       -0.2735
      3 O           2.1239   -2.3775   -1.8853 O.2     2  VAL2       -0.2738
      4 O          -0.4503    3.0332    1.1850 O.2     4  TRP4       -0.2738
      5 O          -0.4811   -1.0768    1.7455 O.2     3  LEU3       -0.2738
      6 OD1         3.8195    4.4774   -0.9621 O.co2   5  ASP5       -0.5497
      7 OD2         3.4722    4.7475   -3.1982 O.co2   5  ASP5       -0.5497
      8 N           3.4923    1.6883    0.8701 N.am    1  PRO1       -0.2884
      9 N           4.1556   -1.2585    0.0544 N.am    2  VAL2       -0.3022
     10 N           0.5598    1.9773   -0.5853 N.am    5  ASP5       -0.3021
     11 N           1.2461   -2.6823    0.2041 N.am    3  LEU3       -0.3025
     12 N          -1.1553   -0.2090   -0.2698 N.am    4  TRP4       -0.3022
     13 NE1        -2.2121    1.7494   -4.1114 N.ar    4  TRP4       -0.3604
     14 CA          4.6959    0.8907    1.0951 C.3     1  PRO1        0.1023
     15 CB          5.3211    1.4916    2.3570 C.3     1  PRO1       -0.0243
     16 CG          4.1352    2.1112    3.0865 C.3     1  PRO1       -0.0350
     17 CD          3.2791    2.6385    1.9475 C.3     1  PRO1        0.0156
     18 C           4.3430   -0.6064    1.2562 C.2     1  PRO1        0.2342
     19 C           2.9292    1.7707   -0.3871 C.2     5  ASP5        0.2369
     20 CA          3.6888   -2.6359   -0.0325 C.3     2  VAL2        0.1017
     21 CA          1.7879    2.7890   -0.6221 C.3     5  ASP5        0.1047
     22 CB          4.6454   -3.5076   -0.8748 C.3     2  VAL2       -0.0197
     23 CA         -0.1205   -2.4334   -0.2295 C.3     3  LEU3        0.0996
     24 C           2.2945   -2.5670   -0.6823 C.2     2  VAL2        0.2342
     25 CB          1.9396    3.4468   -1.9838 C.3     5  ASP5        0.0138
     26 CA         -1.5701    1.0819    0.2925 C.3     4  TRP4        0.1034
     27 CB         -1.0460   -3.6114    0.1014 C.3     3  LEU3       -0.0236
     28 CG         -0.6973   -4.9270   -0.6266 C.3     3  LEU3       -0.0446
     29 C          -0.4116    2.1028    0.3801 C.2     4  TRP4        0.2343
     30 CB         -2.7737    1.6676   -0.4650 C.3     4  TRP4        0.0013
     31 C          -0.5917   -1.1805    0.5253 C.2     3  LEU3        0.2340
     32 CG1         4.1169   -4.9432   -0.9971 C.3     2  VAL2       -0.0605
     33 CG2         6.0489   -3.5444   -0.2597 C.3     2  VAL2       -0.0605
     34 CG         -2.5163    1.9683   -1.9135 C.ar    4  TRP4       -0.0201
     35 CG          3.2002    4.3008   -2.0477 C.2     5  ASP5        0.0440
     36 CD1        -1.6416   -6.0400   -0.1634 C.3     3  LEU3       -0.0626
     37 CD2        -0.7713   -4.7956   -2.1489 C.3     3  LEU3       -0.0626
     38 CD2        -2.1330    3.2375   -2.4565 C.ar    4  TRP4        0.0029
     39 CD1        -2.5901    1.0849   -2.9748 C.ar    4  TRP4        0.0060
     40 CE2        -1.9352    3.0642   -3.8255 C.ar    4  TRP4        0.0467
     41 CE3        -1.9032    4.5128   -1.9001 C.ar    4  TRP4       -0.0523
     42 CZ2        -1.5045    4.0979   -4.6654 C.ar    4  TRP4       -0.0378
     43 CZ3        -1.4760    5.5583   -2.7257 C.ar    4  TRP4       -0.0611
     44 CH2        -1.2748    5.3493   -4.0872 C.ar    4  TRP4       -0.0598
     45 H           3.9737   -0.6472   -0.7518 H       2  VAL2        0.1495
     46 H           0.5618    1.1708   -1.1923 H       5  ASP5        0.1495
     47 H           1.4448   -2.5165    1.1890 H       3  LEU3        0.1495
     48 H          -1.0020   -0.2479   -1.2702 H       4  TRP4        0.1495
     49 HE1        -2.1323    1.3413   -5.0321 H       4  TRP4        0.1653
     50 HA          5.3839    0.9947    0.2465 H       1  PRO1        0.0597
     51 HB1         6.0231    2.2865    2.0742 H       1  PRO1        0.0288
     52 HB2         5.8634    0.7699    2.9745 H       1  PRO1        0.0288
     53 HG1         4.4299    2.8956    3.7890 H       1  PRO1        0.0281
     54 HG2         3.5923    1.3377    3.6420 H       1  PRO1        0.0281
     55 HD1         2.2208    2.6941    2.2147 H       1  PRO1        0.0465
     56 HD2         3.6248    3.6244    1.6201 H       1  PRO1        0.0465
     57 HA          3.5982   -3.0637    0.9730 H       2  VAL2        0.0597
     58 HA          1.7409    3.5458    0.1634 H       5  ASP5        0.0598
     59 HB          4.7317   -3.0892   -1.8862 H       2  VAL2        0.0318
     60 HA         -0.1500   -2.2256   -1.3032 H       3  LEU3        0.0594
     61 HB1         1.0830    4.0972   -2.1838 H       5  ASP5        0.0348
     62 HB2         1.9738    2.6996   -2.7864 H       5  ASP5        0.0348
     63 HA         -1.8815    0.8968    1.3289 H       4  TRP4        0.0598
     64 HB1        -2.0806   -3.3292   -0.1361 H       3  LEU3        0.0290
     65 HB2        -1.0243   -3.7940    1.1847 H       3  LEU3        0.0290
     66 HG          0.3236   -5.2254   -0.3575 H       3  LEU3        0.0296
     67 HB1        -3.1107    2.5821    0.0388 H       4  TRP4        0.0337
     68 HB2        -3.6113    0.9598   -0.4045 H       4  TRP4        0.0337
     69 HG11        3.9793   -5.3996   -0.0108 H       2  VAL2        0.0233
     70 HG12        4.8151   -5.5678   -1.5643 H       2  VAL2        0.0233
     71 HG13        3.1560   -4.9744   -1.5205 H       2  VAL2        0.0233
     72 HG21        6.0214   -3.9265    0.7667 H       2  VAL2        0.0233
     73 HG22        6.5017   -2.5481   -0.2404 H       2  VAL2        0.0233
     74 HG23        6.7113   -4.1929   -0.8434 H       2  VAL2        0.0233
     75 HD11       -2.6822   -5.8093   -0.4164 H       3  LEU3        0.0232
     76 HD12       -1.5781   -6.1796    0.9208 H       3  LEU3        0.0232
     77 HD13       -1.3819   -6.9929   -0.6371 H       3  LEU3        0.0232
     78 HD21       -1.7496   -4.4213   -2.4682 H       3  LEU3        0.0232
     79 HD22       -0.6069   -5.7655   -2.6311 H       3  LEU3        0.0232
     80 HD23       -0.0046   -4.1155   -2.5299 H       3  LEU3        0.0232
     81 HD1        -2.8554    0.0372   -3.0170 H       4  TRP4        0.0810
     82 HE3        -2.0125    4.6814   -0.8323 H       4  TRP4        0.0624
     83 HZ2        -1.3201    3.9353   -5.7217 H       4  TRP4        0.0638
     84 HZ3        -1.2591    6.5303   -2.2900 H       4  TRP4        0.0618
     85 HH2        -0.9012    6.1638   -4.7033 H       4  TRP4        0.0618
@<TRIPOS>BOND
     1     1    18    2
     2     2    19    2
     3     3    24    2
     4     4    29    2
     5     5    31    2
     6     6    35   ar
     7     7    35   ar
     8     8    14    1
     9     8    17    1
    10     8    19   am
    11     9    18   am
    12     9    20    1
    13    10    21    1
    14    10    29   am
    15    11    23    1
    16    11    24   am
    17    12    26    1
    18    12    31   am
    19    13    39   ar
    20    13    40   ar
    21    14    15    1
    22    14    18    1
    23    15    16    1
    24    16    17    1
    25    19    21    1
    26    20    22    1
    27    20    24    1
    28    21    25    1
    29    22    32    1
    30    22    33    1
    31    23    27    1
    32    23    31    1
    33    25    35    1
    34    26    29    1
    35    26    30    1
    36    27    28    1
    37    28    36    1
    38    28    37    1
    39    30    34    1
    40    34    38   ar
    41    34    39   ar
    42    38    40   ar
    43    38    41   ar
    44    40    42   ar
    45    41    43   ar
    46    42    44   ar
    47    43    44   ar
    48     9    45    1
    49    10    46    1
    50    11    47    1
    51    12    48    1
    52    13    49    1
    53    14    50    1
    54    15    51    1
    55    15    52    1
    56    16    53    1
    57    16    54    1
    58    17    55    1
    59    17    56    1
    60    20    57    1
    61    21    58    1
    62    22    59    1
    63    23    60    1
    64    25    61    1
    65    25    62    1
    66    26    63    1
    67    27    64    1
    68    27    65    1
    69    28    66    1
    70    30    67    1
    71    30    68    1
    72    32    69    1
    73    32    70    1
    74    32    71    1
    75    33    72    1
    76    33    73    1
    77    33    74    1
    78    36    75    1
    79    36    76    1
    80    36    77    1
    81    37    78    1
    82    37    79    1
    83    37    80    1
    84    39    81    1
    85    41    82    1
    86    42    83    1
    87    43    84    1
    88    44    85    1
@<TRIPOS>MOLECULE
16219006
 85 88 0 0 0
SMALL
GASTEIGER

@<TRIPOS>ATOM
      1 O           4.2068   -1.0499    2.2440 O.2     1  PRO1       -0.2738
      2 O           2.8695    0.8463   -1.2549 O.2     5  ASP5       -0.2735
      3 O           2.1361   -2.5582   -1.9211 O.2     2  VAL2       -0.2738
      4 O          -0.4981    2.8936    1.2944 O.2     4  TRP4       -0.2738
      5 O          -0.1551   -0.9748    1.7157 O.2     3  LEU3       -0.2738
      6 OD1         2.5872    5.6017   -1.4161 O.co2   5  ASP5       -0.5497
      7 OD2         4.0504    3.9353   -1.9487 O.co2   5  ASP5       -0.5497
      8 N           3.3605    1.7759    0.7583 N.am    1  PRO1       -0.2884
      9 N           4.1267   -1.1955   -0.0390 N.am    2  VAL2       -0.3022
     10 N           0.3371    2.0143   -0.6609 N.am    5  ASP5       -0.3021
     11 N           1.3329   -2.7250    0.2177 N.am    3  LEU3       -0.3025
     12 N          -1.1548   -0.2832   -0.2244 N.am    4  TRP4       -0.3022
     13 NE1        -5.7234   -0.6334   -0.0035 N.ar    4  TRP4       -0.3604
     14 CA          4.5861    0.9979    0.9371 C.3     1  PRO1        0.1023
     15 CB          5.2680    1.6337    2.1534 C.3     1  PRO1       -0.0243
     16 CG          4.1179    2.2755    2.9193 C.3     1  PRO1       -0.0350
     17 CD          3.2088    2.7685    1.8073 C.3     1  PRO1        0.0156
     18 C           4.2919   -0.5068    1.1447 C.2     1  PRO1        0.2342
     19 C           2.6928    1.7708   -0.4473 C.2     5  ASP5        0.2369
     20 CA          3.7619   -2.6059   -0.0998 C.3     2  VAL2        0.1017
     21 CA          1.5722    2.8153   -0.6783 C.3     5  ASP5        0.1047
     22 CB          4.7818   -3.4023   -0.9435 C.3     2  VAL2       -0.0197
     23 CA         -0.0496   -2.4887   -0.1704 C.3     3  LEU3        0.0996
     24 C           2.3489   -2.6450   -0.7138 C.2     2  VAL2        0.2342
     25 CB          1.7373    3.4963   -2.0262 C.3     5  ASP5        0.0138
     26 CA         -1.6348    0.9720    0.3681 C.3     4  TRP4        0.1034
     27 CB         -0.9952   -3.6061    0.2953 C.3     3  LEU3       -0.0236
     28 CG         -0.9311   -4.9026   -0.5416 C.3     3  LEU3       -0.0446
     29 C          -0.5102    2.0200    0.4294 C.2     4  TRP4        0.2343
     30 CB         -2.8050    1.5785   -0.4189 C.3     4  TRP4        0.0013
     31 C          -0.4436   -1.1809    0.5367 C.2     3  LEU3        0.2340
     32 CG1         4.3463   -4.8618   -1.1264 C.3     2  VAL2       -0.0605
     33 CG2         6.1680   -3.3787   -0.2860 C.3     2  VAL2       -0.0605
     34 CG         -3.9801    0.6517   -0.5319 C.ar    4  TRP4       -0.0201
     35 CG          2.9056    4.4377   -1.7834 C.2     5  ASP5        0.0440
     36 CD1         0.3598   -5.6939   -0.3271 C.3     3  LEU3       -0.0626
     37 CD2        -2.1263   -5.7983   -0.1968 C.3     3  LEU3       -0.0626
     38 CD2        -4.4909    0.0532   -1.7287 C.ar    4  TRP4        0.0029
     39 CD1        -4.7753    0.2093    0.5077 C.ar    4  TRP4        0.0060
     40 CE2        -5.5746   -0.7473   -1.3655 C.ar    4  TRP4        0.0467
     41 CE3        -4.1310    0.1171   -3.0909 C.ar    4  TRP4       -0.0523
     42 CZ2        -6.3148   -1.4890   -2.2942 C.ar    4  TRP4       -0.0378
     43 CZ3        -4.8622   -0.6149   -4.0331 C.ar    4  TRP4       -0.0611
     44 CH2        -5.9373   -1.4066   -3.6377 C.ar    4  TRP4       -0.0598
     45 H           3.8755   -0.6113   -0.8466 H       2  VAL2        0.1495
     46 H           0.3886    1.1565   -1.1977 H       5  ASP5        0.1495
     47 H           1.5721   -2.4623    1.1733 H       3  LEU3        0.1495
     48 H          -1.3694   -0.4857   -1.1931 H       4  TRP4        0.1495
     49 HE1        -6.4348   -1.1043    0.5373 H       4  TRP4        0.1653
     50 HA          5.2254    1.1050    0.0515 H       1  PRO1        0.0597
     51 HB1         5.9570    2.4187    1.8176 H       1  PRO1        0.0288
     52 HB2         5.8371    0.9290    2.7665 H       1  PRO1        0.0288
     53 HG1         4.4434    3.0797    3.5848 H       1  PRO1        0.0281
     54 HG2         3.6018    1.5180    3.5215 H       1  PRO1        0.0281
     55 HD1         2.1675    2.8427    2.1289 H       1  PRO1        0.0465
     56 HD2         3.5425    3.7365    1.4179 H       1  PRO1        0.0465
     57 HA          3.7228   -3.0261    0.9120 H       2  VAL2        0.0597
     58 HA          1.5286    3.5535    0.1248 H       5  ASP5        0.0598
     59 HB          4.8719   -2.9472   -1.9391 H       2  VAL2        0.0318
     60 HA         -0.1326   -2.3511   -1.2538 H       3  LEU3        0.0594
     61 HB1         0.8393    4.0597   -2.3049 H       5  ASP5        0.0348
     62 HB2         1.9611    2.7946   -2.8375 H       5  ASP5        0.0348
     63 HA         -1.9362    0.7588    1.4017 H       4  TRP4        0.0598
     64 HB1        -2.0230   -3.2207    0.2456 H       3  LEU3        0.0290
     65 HB2        -0.8119   -3.8401    1.3524 H       3  LEU3        0.0290
     66 HG         -1.0059   -4.6433   -1.6057 H       3  LEU3        0.0296
     67 HB1        -2.4682    1.8703   -1.4216 H       4  TRP4        0.0337
     68 HB2        -3.1353    2.5059    0.0672 H       4  TRP4        0.0337
     69 HG11        4.1526   -5.3419   -0.1618 H       2  VAL2        0.0233
     70 HG12        5.1207   -5.4382   -1.6426 H       2  VAL2        0.0233
     71 HG13        3.4381   -4.9331   -1.7314 H       2  VAL2        0.0233
     72 HG21        6.1336   -3.8071    0.7211 H       2  VAL2        0.0233
     73 HG22        6.5557   -2.3589   -0.2093 H       2  VAL2        0.0233
     74 HG23        6.8861   -3.9587   -0.8745 H       2  VAL2        0.0233
     75 HD11        0.5531   -5.8626    0.7371 H       3  LEU3        0.0232
     76 HD12        1.2188   -5.1762   -0.7555 H       3  LEU3        0.0232
     77 HD13        0.3061   -6.6710   -0.8188 H       3  LEU3        0.0232
     78 HD21       -2.1092   -6.0934    0.8572 H       3  LEU3        0.0232
     79 HD22       -2.1177   -6.7091   -0.8045 H       3  LEU3        0.0232
     80 HD23       -3.0707   -5.2803   -0.3912 H       3  LEU3        0.0232
     81 HD1        -4.7376    0.4182    1.5691 H       4  TRP4        0.0810
     82 HE3        -3.3004    0.7372   -3.4162 H       4  TRP4        0.0624
     83 HZ2        -7.1551   -2.1036   -1.9893 H       4  TRP4        0.0638
     84 HZ3        -4.5877   -0.5592   -5.0833 H       4  TRP4        0.0618
     85 HH2        -6.4947   -1.9662   -4.3852 H       4  TRP4        0.0618
@<TRIPOS>BOND
     1     1    18    2
     2     2    19    2
     3     3    24    2
     4     4    29    2
     5     5    31    2
     6     6    35   ar
     7     7    35   ar
     8     8    14    1
     9     8    17    1
    10     8    19   am
    11     9    18   am
    12     9    20    1
    13    10    21    1
    14    10    29   am
    15    11    23    1
    16    11    24   am
    17    12    26    1
    18    12    31   am
    19    13    39   ar
    20    13    40   ar
    21    14    15    1
    22    14    18    1
    23    15    16    1
    24    16    17    1
    25    19    21    1
    26    20    22    1
    27    20    24    1
    28    21    25    1
    29    22    32    1
    30    22    33    1
    31    23    27    1
    32    23    31    1
    33    25    35    1
    34    26    29    1
    35    26    30    1
    36    27    28    1
    37    28    36    1
    38    28    37    1
    39    30    34    1
    40    34    38   ar
    41    34    39   ar
    42    38    40   ar
    43    38    41   ar
    44    40    42   ar
    45    41    43   ar
    46    42    44   ar
    47    43    44   ar
    48     9    45    1
    49    10    46    1
    50    11    47    1
    51    12    48    1
    52    13    49    1
    53    14    50    1
    54    15    51    1
    55    15    52    1
    56    16    53    1
    57    16    54    1
    58    17    55    1
    59    17    56    1
    60    20    57    1
    61    21    58    1
    62    22    59    1
    63    23    60    1
    64    25    61    1
    65    25    62    1
    66    26    63    1
    67    27    64    1
    68    27    65    1
    69    28    66    1
    70    30    67    1
    71    30    68    1
    72    32    69    1
    73    32    70    1
    74    32    71    1
    75    33    72    1
    76    33    73    1
    77    33    74    1
    78    36    75    1
    79    36    76    1
    80    36    77    1
    81    37    78    1
    82    37    79    1
    83    37    80    1
    84    39    81    1
    85    41    82    1
    86    42    83    1
    87    43    84    1
    88    44    85    1
@<TRIPOS>MOLECULE
16219006
 85 88 0 0 0
SMALL
GASTEIGER

@<TRIPOS>ATOM
      1 O           4.2205   -0.9240    2.2308 O.2     1  PRO1       -0.2738
      2 O           3.3155    1.2417   -1.4082 O.2     5  ASP5       -0.2735
      3 O           2.0088   -1.7500   -1.7327 O.2     2  VAL2       -0.2738
      4 O          -0.3273    2.7090    1.5068 O.2     4  TRP4       -0.2738
      5 O          -0.3236   -1.2528    1.7977 O.2     3  LEU3       -0.2738
      6 OD1         0.6842    5.2183   -3.2226 O.co2   5  ASP5       -0.5497
      7 OD2        -0.6597    4.2020   -1.6883 O.co2   5  ASP5       -0.5497
      8 N           3.4706    1.8985    0.7442 N.am    1  PRO1       -0.2884
      9 N           4.2255   -1.0679   -0.0569 N.am    2  VAL2       -0.3022
     10 N           0.5023    1.8094   -0.4451 N.am    5  ASP5       -0.3021
     11 N           1.2499   -2.8581    0.1158 N.am    3  LEU3       -0.3025
     12 N          -1.1618   -0.3473   -0.1413 N.am    4  TRP4       -0.3022
     13 NE1        -5.3402   -0.8223   -1.2950 N.ar    4  TRP4       -0.3604
     14 CA          4.6896    1.1212    0.9656 C.3     1  PRO1        0.1023
     15 CB          5.2867    1.7273    2.2366 C.3     1  PRO1       -0.0243
     16 CG          4.0682    2.2373    2.9983 C.3     1  PRO1       -0.0350
     17 CD          3.1417    2.7234    1.8944 C.3     1  PRO1        0.0156
     18 C           4.3626   -0.3815    1.1363 C.2     1  PRO1        0.2342
     19 C           2.8736    1.9547   -0.4968 C.2     5  ASP5        0.2369
     20 CA          3.6693   -2.4159   -0.0811 C.3     2  VAL2        0.1017
     21 CA          1.5712    2.7782   -0.6601 C.3     5  ASP5        0.1047
     22 CB          4.5291   -3.4317   -0.8690 C.3     2  VAL2       -0.0197
     23 CA         -0.1369   -2.5667   -0.2290 C.3     3  LEU3        0.0996
     24 C           2.2474   -2.3032   -0.6576 C.2     2  VAL2        0.2342
     25 CB          1.5280    3.3622   -2.0680 C.3     5  ASP5        0.0138
     26 CA         -1.5936    0.9195    0.4690 C.3     4  TRP4        0.1034
     27 CB         -1.0691   -3.7334    0.1063 C.3     3  LEU3       -0.0236
     28 CG         -0.7502   -5.0352   -0.6566 C.3     3  LEU3       -0.0446
     29 C          -0.3968    1.8835    0.5976 C.2     4  TRP4        0.2343
     30 CB         -2.6968    1.5862   -0.3718 C.3     4  TRP4        0.0013
     31 C          -0.5430   -1.3303    0.5906 C.2     3  LEU3        0.2340
     32 CG1         5.8619   -3.6827   -0.1546 C.3     2  VAL2       -0.0605
     33 CG2         4.7980   -3.0423   -2.3258 C.3     2  VAL2       -0.0605
     34 CG         -3.9118    0.7058   -0.5203 C.ar    4  TRP4       -0.0201
     35 CG          0.4111    4.3606   -2.3338 C.2     5  ASP5        0.0440
     36 CD1        -1.7362   -6.1290   -0.2414 C.3     3  LEU3       -0.0626
     37 CD2        -0.7883   -4.8543   -2.1754 C.3     3  LEU3       -0.0626
     38 CD2        -5.0277    0.6203    0.3733 C.ar    4  TRP4        0.0029
     39 CD1        -4.1546   -0.1890   -1.5468 C.ar    4  TRP4        0.0060
     40 CE2        -5.8953   -0.3507   -0.1292 C.ar    4  TRP4        0.0467
     41 CE3        -5.3786    1.2783    1.5696 C.ar    4  TRP4       -0.0523
     42 CZ2        -7.0907   -0.7043    0.5086 C.ar    4  TRP4       -0.0378
     43 CZ3        -6.5750    0.9445    2.2154 C.ar    4  TRP4       -0.0611
     44 CH2        -7.4153   -0.0355    1.6924 C.ar    4  TRP4       -0.0598
     45 H           4.0147   -0.4781   -0.8707 H       2  VAL2        0.1495
     46 H           0.3917    1.0923   -1.1453 H       5  ASP5        0.1495
     47 H           1.4382   -2.8960    1.1145 H       3  LEU3        0.1495
     48 H          -1.1880   -0.4084   -1.1504 H       4  TRP4        0.1495
     49 HE1        -5.7579   -1.5297   -1.8820 H       4  TRP4        0.1653
     50 HA          5.3786    1.2344    0.1206 H       1  PRO1        0.0597
     51 HB1         5.9284    2.5765    1.9712 H       1  PRO1        0.0288
     52 HB2         5.8833    1.0242    2.8252 H       1  PRO1        0.0288
     53 HG1         4.3159    3.0254    3.7147 H       1  PRO1        0.0281
     54 HG2         3.5975    1.4145    3.5487 H       1  PRO1        0.0281
     55 HD1         2.0917    2.6189    2.1680 H       1  PRO1        0.0465
     56 HD2         3.3477    3.7668    1.6333 H       1  PRO1        0.0465
     57 HA          3.5830   -2.7863    0.9475 H       2  VAL2        0.0597
     58 HA          1.5162    3.5818    0.0794 H       5  ASP5        0.0598
     59 HB          3.9849   -4.3862   -0.8864 H       2  VAL2        0.0318
     60 HA         -0.2174   -2.3240   -1.2932 H       3  LEU3        0.0594
     61 HB1         1.4360    2.5673   -2.8189 H       5  ASP5        0.0348
     62 HB2         2.4809    3.8721   -2.2652 H       5  ASP5        0.0348
     63 HA         -1.9521    0.6990    1.4820 H       4  TRP4        0.0598
     64 HB1        -2.1042   -3.4311   -0.1025 H       3  LEU3        0.0290
     65 HB2        -1.0254   -3.9369    1.1851 H       3  LEU3        0.0290
     66 HG          0.2561   -5.3725   -0.3790 H       3  LEU3        0.0296
     67 HB1        -2.3152    1.8289   -1.3726 H       4  TRP4        0.0337
     68 HB2        -2.9881    2.5416    0.0822 H       4  TRP4        0.0337
     69 HG11        6.4873   -2.7838   -0.1424 H       2  VAL2        0.0233
     70 HG12        6.4266   -4.4765   -0.6561 H       2  VAL2        0.0233
     71 HG13        5.6978   -3.9990    0.8810 H       2  VAL2        0.0233
     72 HG21        5.2926   -2.0692   -2.4021 H       2  VAL2        0.0233
     73 HG22        3.8727   -3.0072   -2.9069 H       2  VAL2        0.0233
     74 HG23        5.4462   -3.7836   -2.8073 H       2  VAL2        0.0233
     75 HD11       -2.7636   -5.8592   -0.5080 H       3  LEU3        0.0232
     76 HD12       -1.6981   -6.2971    0.8400 H       3  LEU3        0.0232
     77 HD13       -1.4955   -7.0767   -0.7347 H       3  LEU3        0.0232
     78 HD21       -1.7432   -4.4289   -2.5012 H       3  LEU3        0.0232
     79 HD22       -0.6529   -5.8143   -2.6851 H       3  LEU3        0.0232
     80 HD23        0.0149   -4.1951   -2.5190 H       3  LEU3        0.0232
     81 HD1        -3.5790   -0.4271   -2.4309 H       4  TRP4        0.0810
     82 HE3        -4.7299    2.0454    1.9837 H       4  TRP4        0.0624
     83 HZ2        -7.7474   -1.4650    0.1011 H       4  TRP4        0.0638
     84 HZ3        -6.8464    1.4593    3.1333 H       4  TRP4        0.0618
     85 HH2        -8.3389   -0.2817    2.2101 H       4  TRP4        0.0618
@<TRIPOS>BOND
     1     1    18    2
     2     2    19    2
     3     3    24    2
     4     4    29    2
     5     5    31    2
     6     6    35   ar
     7     7    35   ar
     8     8    14    1
     9     8    17    1
    10     8    19   am
    11     9    18   am
    12     9    20    1
    13    10    21    1
    14    10    29   am
    15    11    23    1
    16    11    24   am
    17    12    26    1
    18    12    31   am
    19    13    39   ar
    20    13    40   ar
    21    14    15    1
    22    14    18    1
    23    15    16    1
    24    16    17    1
    25    19    21    1
    26    20    22    1
    27    20    24    1
    28    21    25    1
    29    22    32    1
    30    22    33    1
    31    23    27    1
    32    23    31    1
    33    25    35    1
    34    26    29    1
    35    26    30    1
    36    27    28    1
    37    28    36    1
    38    28    37    1
    39    30    34    1
    40    34    38   ar
    41    34    39   ar
    42    38    40   ar
    43    38    41   ar
    44    40    42   ar
    45    41    43   ar
    46    42    44   ar
    47    43    44   ar
    48     9    45    1
    49    10    46    1
    50    11    47    1
    51    12    48    1
    52    13    49    1
    53    14    50    1
    54    15    51    1
    55    15    52    1
    56    16    53    1
    57    16    54    1
    58    17    55    1
    59    17    56    1
    60    20    57    1
    61    21    58    1
    62    22    59    1
    63    23    60    1
    64    25    61    1
    65    25    62    1
    66    26    63    1
    67    27    64    1
    68    27    65    1
    69    28    66    1
    70    30    67    1
    71    30    68    1
    72    32    69    1
    73    32    70    1
    74    32    71    1
    75    33    72    1
    76    33    73    1
    77    33    74    1
    78    36    75    1
    79    36    76    1
    80    36    77    1
    81    37    78    1
    82    37    79    1
    83    37    80    1
    84    39    81    1
    85    41    82    1
    86    42    83    1
    87    43    84    1
    88    44    85    1
@<TRIPOS>MOLECULE
16219006
 85 88 0 0 0
SMALL
GASTEIGER

@<TRIPOS>ATOM
      1 O           4.3737   -1.1667    2.2318 O.2     1  PRO1       -0.2738
      2 O           3.4242    1.1299   -1.4708 O.2     5  ASP5       -0.2735
      3 O           2.0781   -2.7825   -1.9261 O.2     2  VAL2       -0.2738
      4 O          -0.4036    3.0936    1.2629 O.2     4  TRP4       -0.2738
      5 O          -0.3573   -1.0135    1.7649 O.2     3  LEU3       -0.2738
      6 OD1         0.3920    1.4322   -2.9014 O.co2   5  ASP5       -0.5497
      7 OD2         1.5011    2.7468   -4.4132 O.co2   5  ASP5       -0.5497
      8 N           3.4857    1.7146    0.7110 N.am    1  PRO1       -0.2884
      9 N           4.0333   -1.2436   -0.0276 N.am    2  VAL2       -0.3022
     10 N           0.5527    1.8984   -0.4351 N.am    5  ASP5       -0.3021
     11 N           1.2257   -2.6171    0.1935 N.am    3  LEU3       -0.3025
     12 N          -1.1887   -0.1341   -0.1837 N.am    4  TRP4       -0.3022
     13 NE1        -5.4711   -0.5120   -1.3653 N.ar    4  TRP4       -0.3604
     14 CA          4.6804    0.9123    0.9726 C.3     1  PRO1        0.1023
     15 CB          5.2558    1.5304    2.2496 C.3     1  PRO1       -0.0243
     16 CG          4.0189    2.0291    2.9883 C.3     1  PRO1       -0.0350
     17 CD          3.1212    2.5223    1.8644 C.3     1  PRO1        0.0156
     18 C           4.3380   -0.5891    1.1464 C.2     1  PRO1        0.2342
     19 C           2.9542    1.8214   -0.5629 C.2     5  ASP5        0.2369
     20 CA          3.6540   -2.6565   -0.0707 C.3     2  VAL2        0.1017
     21 CA          1.7070    2.7240   -0.7355 C.3     5  ASP5        0.1047
     22 CB          4.6762   -3.5068   -0.8580 C.3     2  VAL2       -0.0197
     23 CA         -0.1433   -2.3501   -0.2392 C.3     3  LEU3        0.0996
     24 C           2.2565   -2.7135   -0.7137 C.2     2  VAL2        0.2342
     25 CB          1.6102    3.3241   -2.1333 C.3     5  ASP5        0.0138
     26 CA         -1.5926    1.1287    0.4438 C.3     4  TRP4        0.1034
     27 CB         -1.0523   -3.5424    0.0924 C.3     3  LEU3       -0.0236
     28 CG         -2.5314   -3.3664   -0.3092 C.3     3  LEU3       -0.0446
     29 C          -0.4142    2.1269    0.5013 C.2     4  TRP4        0.2343
     30 CB         -2.7706    1.7652   -0.3052 C.3     4  TRP4        0.0013
     31 C          -0.5636   -1.1078    0.5550 C.2     3  LEU3        0.2340
     32 CG1         4.2268   -4.9735   -0.9405 C.3     2  VAL2       -0.0605
     33 CG2         6.0623   -3.4560   -0.2055 C.3     2  VAL2       -0.0605
     34 CG         -3.9478    0.8377   -0.4525 C.ar    4  TRP4       -0.0201
     35 CG          1.1475    2.3901   -3.2552 C.2     5  ASP5        0.0440
     36 CD1        -2.7101   -3.2077   -1.8191 C.3     3  LEU3       -0.0626
     37 CD2        -3.3528   -4.5618    0.1825 C.3     3  LEU3       -0.0626
     38 CD2        -4.7540    0.2757    0.5917 C.ar    4  TRP4        0.0029
     39 CD1        -4.4309    0.3301   -1.6438 C.ar    4  TRP4        0.0060
     40 CE2        -5.6863   -0.5723   -0.0088 C.ar    4  TRP4        0.0467
     41 CE3        -4.7635    0.3896    1.9974 C.ar    4  TRP4       -0.0523
     42 CZ2        -6.6212   -1.3142    0.7243 C.ar    4  TRP4       -0.0378
     43 CZ3        -5.6889   -0.3469    2.7460 C.ar    4  TRP4       -0.0611
     44 CH2        -6.6032   -1.1867    2.1161 C.ar    4  TRP4       -0.0598
     45 H           3.8387   -0.6632   -0.8518 H       2  VAL2        0.1495
     46 H           0.3235    1.2809   -1.2237 H       5  ASP5        0.1495
     47 H           1.4513   -2.3376    1.1455 H       3  LEU3        0.1495
     48 H          -1.0795   -0.1409   -1.1967 H       4  TRP4        0.1495
     49 HE1        -5.9949   -1.0332   -2.0536 H       4  TRP4        0.1653
     50 HA          5.3952    1.0041    0.1460 H       1  PRO1        0.0597
     51 HB1         5.8898    2.3876    1.9894 H       1  PRO1        0.0288
     52 HB2         5.8537    0.8406    2.8518 H       1  PRO1        0.0288
     53 HG1         4.2466    2.8131    3.7162 H       1  PRO1        0.0281
     54 HG2         3.5371    1.2005    3.5198 H       1  PRO1        0.0281
     55 HD1         2.0620    2.4108    2.1031 H       1  PRO1        0.0465
     56 HD2         3.3325    3.5711    1.6278 H       1  PRO1        0.0465
     57 HA          3.5812   -3.0486    0.9513 H       2  VAL2        0.0597
     58 HA          1.7541    3.5533   -0.0238 H       5  ASP5        0.0598
     59 HB          4.7683   -3.1187   -1.8807 H       2  VAL2        0.0318
     60 HA         -0.1526   -2.1348   -1.3117 H       3  LEU3        0.0594
     61 HB1         2.5792    3.7670   -2.4087 H       5  ASP5        0.0348
     62 HB2         0.8829    4.1472   -2.1136 H       5  ASP5        0.0348
     63 HA         -1.8671    0.9139    1.4828 H       4  TRP4        0.0598
     64 HB1        -1.0052   -3.7377    1.1731 H       3  LEU3        0.0290
     65 HB2        -0.6496   -4.4423   -0.3916 H       3  LEU3        0.0290
     66 HG         -2.9333   -2.4731    0.1825 H       3  LEU3        0.0296
     67 HB1        -2.4415    2.0871   -1.3026 H       4  TRP4        0.0337
     68 HB2        -3.0963    2.6740    0.2159 H       4  TRP4        0.0337
     69 HG11        4.0789   -5.3986    0.0583 H       2  VAL2        0.0233
     70 HG12        4.9746   -5.5819   -1.4600 H       2  VAL2        0.0233
     71 HG13        3.2879   -5.0790   -1.4926 H       2  VAL2        0.0233
     72 HG21        6.0244   -3.8083    0.8313 H       2  VAL2        0.0233
     73 HG22        6.4672   -2.4395   -0.2061 H       2  VAL2        0.0233
     74 HG23        6.7701   -4.0907   -0.7500 H       2  VAL2        0.0233
     75 HD11       -2.2687   -4.0508   -2.3612 H       3  LEU3        0.0232
     76 HD12       -2.2448   -2.2872   -2.1828 H       3  LEU3        0.0232
     77 HD13       -3.7725   -3.1586   -2.0812 H       3  LEU3        0.0232
     78 HD21       -3.0159   -5.4951   -0.2814 H       3  LEU3        0.0232
     79 HD22       -4.4137   -4.4284   -0.0559 H       3  LEU3        0.0232
     80 HD23       -3.2691   -4.6723    1.2688 H       3  LEU3        0.0232
     81 HD1        -4.1015    0.4846   -2.6638 H       4  TRP4        0.0810
     82 HE3        -4.0508    1.0344    2.5030 H       4  TRP4        0.0624
     83 HZ2        -7.3313   -1.9721    0.2352 H       4  TRP4        0.0638
     84 HZ3        -5.6844   -0.2641    3.8297 H       4  TRP4        0.0618
     85 HH2        -7.3108   -1.7544    2.7151 H       4  TRP4        0.0618
@<TRIPOS>BOND
     1     1    18    2
     2     2    19    2
     3     3    24    2
     4     4    29    2
     5     5    31    2
     6     6    35   ar
     7     7    35   ar
     8     8    14    1
     9     8    17    1
    10     8    19   am
    11     9    18   am
    12     9    20    1
    13    10    21    1
    14    10    29   am
    15    11    23    1
    16    11    24   am
    17    12    26    1
    18    12    31   am
    19    13    39   ar
    20    13    40   ar
    21    14    15    1
    22    14    18    1
    23    15    16    1
    24    16    17    1
    25    19    21    1
    26    20    22    1
    27    20    24    1
    28    21    25    1
    29    22    32    1
    30    22    33    1
    31    23    27    1
    32    23    31    1
    33    25    35    1
    34    26    29    1
    35    26    30    1
    36    27    28    1
    37    28    36    1
    38    28    37    1
    39    30    34    1
    40    34    38   ar
    41    34    39   ar
    42    38    40   ar
    43    38    41   ar
    44    40    42   ar
    45    41    43   ar
    46    42    44   ar
    47    43    44   ar
    48     9    45    1
    49    10    46    1
    50    11    47    1
    51    12    48    1
    52    13    49    1
    53    14    50    1
    54    15    51    1
    55    15    52    1
    56    16    53    1
    57    16    54    1
    58    17    55    1
    59    17    56    1
    60    20    57    1
    61    21    58    1
    62    22    59    1
    63    23    60    1
    64    25    61    1
    65    25    62    1
    66    26    63    1
    67    27    64    1
    68    27    65    1
    69    28    66    1
    70    30    67    1
    71    30    68    1
    72    32    69    1
    73    32    70    1
    74    32    71    1
    75    33    72    1
    76    33    73    1
    77    33    74    1
    78    36    75    1
    79    36    76    1
    80    36    77    1
    81    37    78    1
    82    37    79    1
    83    37    80    1
    84    39    81    1
    85    41    82    1
    86    42    83    1
    87    43    84    1
    88    44    85    1
@<TRIPOS>MOLECULE
16219006
 85 88 0 0 0
SMALL
GASTEIGER

@<TRIPOS>ATOM
      1 O           4.1420   -1.0428    2.2262 O.2     1  PRO1       -0.2738
      2 O           2.9671    0.9039   -1.3145 O.2     5  ASP5       -0.2735
      3 O           2.1041   -2.4315   -1.9547 O.2     2  VAL2       -0.2738
      4 O          -0.4271    3.0059    1.2703 O.2     4  TRP4       -0.2738
      5 O          -0.3102   -1.1064    1.7464 O.2     3  LEU3       -0.2738
      6 OD1         3.8144    4.1522   -3.0234 O.co2   5  ASP5       -0.5497
      7 OD2         3.2036    5.0467   -1.0174 O.co2   5  ASP5       -0.5497
      8 N           3.4160    1.7908    0.7212 N.am    1  PRO1       -0.2884
      9 N           4.1152   -1.2138   -0.0576 N.am    2  VAL2       -0.3022
     10 N           0.3880    2.0370   -0.6482 N.am    5  ASP5       -0.3021
     11 N           1.2427   -2.7143    0.1457 N.am    3  LEU3       -0.3025
     12 N          -1.1515   -0.2041   -0.1852 N.am    4  TRP4       -0.3022
     13 NE1        -5.6431   -0.4383   -1.3148 N.ar    4  TRP4       -0.3604
     14 CA          4.6194    0.9788    0.9146 C.3     1  PRO1        0.1023
     15 CB          5.3015    1.5978    2.1389 C.3     1  PRO1       -0.0243
     16 CG          4.1566    2.2590    2.8969 C.3     1  PRO1       -0.0350
     17 CD          3.2674    2.7753    1.7790 C.3     1  PRO1        0.0156
     18 C           4.2751   -0.5158    1.1236 C.2     1  PRO1        0.2342
     19 C           2.7620    1.8075   -0.4872 C.2     5  ASP5        0.2369
     20 CA          3.6788   -2.6056   -0.0987 C.3     2  VAL2        0.1017
     21 CA          1.6249    2.8350   -0.7082 C.3     5  ASP5        0.1047
     22 CB          4.6567   -3.4843   -0.9086 C.3     2  VAL2       -0.0197
     23 CA         -0.1336   -2.4427   -0.2613 C.3     3  LEU3        0.0996
     24 C           2.2823   -2.5917   -0.7487 C.2     2  VAL2        0.2342
     25 CB          1.7658    3.4930   -2.0711 C.3     5  ASP5        0.0138
     26 CA         -1.5707    1.0395    0.4667 C.3     4  TRP4        0.1034
     27 CB         -1.0276   -3.6418    0.0751 C.3     3  LEU3       -0.0236
     28 CG         -2.5053   -3.4878   -0.3324 C.3     3  LEU3       -0.0446
     29 C          -0.4501    2.0934    0.4462 C.2     4  TRP4        0.2343
     30 CB         -2.8275    1.6458   -0.1709 C.3     4  TRP4        0.0013
     31 C          -0.5364   -1.1974    0.5399 C.2     3  LEU3        0.2340
     32 CG1         4.1527   -4.9312   -0.9987 C.3     2  VAL2       -0.0605
     33 CG2         6.0533   -3.4843   -0.2766 C.3     2  VAL2       -0.0605
     34 CG         -3.9757    0.6886   -0.3488 C.ar    4  TRP4       -0.0201
     35 CG          3.0518    4.3096   -2.0336 C.2     5  ASP5        0.0440
     36 CD1        -2.6895   -3.2938   -1.8375 C.3     3  LEU3       -0.0626
     37 CD2        -3.3030   -4.7095    0.1309 C.3     3  LEU3       -0.0626
     38 CD2        -4.5520   -0.2067    0.6158 C.ar    4  TRP4        0.0029
     39 CD1        -4.6877    0.5165   -1.5218 C.ar    4  TRP4        0.0060
     40 CE2        -5.5721   -0.9119   -0.0270 C.ar    4  TRP4        0.0467
     41 CE3        -4.2936   -0.5086    1.9704 C.ar    4  TRP4       -0.0523
     42 CZ2        -6.3288   -1.9058    0.6067 C.ar    4  TRP4       -0.0378
     43 CZ3        -5.0310   -1.5087    2.6154 C.ar    4  TRP4       -0.0611
     44 CH2        -6.0330   -2.1978    1.9402 C.ar    4  TRP4       -0.0598
     45 H           3.9021   -0.6337   -0.8781 H       2  VAL2        0.1495
     46 H           0.4302    1.1643   -1.1596 H       5  ASP5        0.1495
     47 H           1.4522   -2.5354    1.1266 H       3  LEU3        0.1495
     48 H          -1.2735   -0.2979   -1.1859 H       4  TRP4        0.1495
     49 HE1        -6.3048   -0.7600   -2.0069 H       4  TRP4        0.1653
     50 HA          5.2718    1.0643    0.0366 H       1  PRO1        0.0597
     51 HB1         6.0083    2.3711    1.8119 H       1  PRO1        0.0288
     52 HB2         5.8513    0.8804    2.7547 H       1  PRO1        0.0288
     53 HG1         4.4915    3.0541    3.5686 H       1  PRO1        0.0281
     54 HG2         3.6198    1.5100    3.4910 H       1  PRO1        0.0281
     55 HD1         2.2237    2.8626    2.0895 H       1  PRO1        0.0465
     56 HD2         3.6212    3.7413    1.4054 H       1  PRO1        0.0465
     57 HA          3.5993   -3.0005    0.9211 H       2  VAL2        0.0597
     58 HA          1.5954    3.5854    0.0836 H       5  ASP5        0.0598
     59 HB          4.7475   -3.0908   -1.9296 H       2  VAL2        0.0318
     60 HA         -0.1638   -2.2240   -1.3320 H       3  LEU3        0.0594
     61 HB1         0.9209    4.1605   -2.2742 H       5  ASP5        0.0348
     62 HB2         1.8034    2.7517   -2.8786 H       5  ASP5        0.0348
     63 HA         -1.7511    0.8230    1.5242 H       4  TRP4        0.0598
     64 HB1        -0.9805   -3.8328    1.1563 H       3  LEU3        0.0290
     65 HB2        -0.6130   -4.5378   -0.4066 H       3  LEU3        0.0290
     66 HG         -2.9195   -2.6143    0.1787 H       3  LEU3        0.0296
     67 HB1        -2.5667    2.0632   -1.1537 H       4  TRP4        0.0337
     68 HB2        -3.1718    2.4953    0.4331 H       4  TRP4        0.0337
     69 HG11        4.0073   -5.3625   -0.0021 H       2  VAL2        0.0233
     70 HG12        4.8687   -5.5602   -1.5381 H       2  VAL2        0.0233
     71 HG13        3.2005   -4.9921   -1.5350 H       2  VAL2        0.0233
     72 HG21        6.0195   -3.8437    0.7579 H       2  VAL2        0.0233
     73 HG22        6.4898   -2.4807   -0.2742 H       2  VAL2        0.0233
     74 HG23        6.7327   -4.1355   -0.8372 H       2  VAL2        0.0233
     75 HD11       -2.2279   -4.1106   -2.4023 H       3  LEU3        0.0232
     76 HD12       -2.2498   -2.3520   -2.1777 H       3  LEU3        0.0232
     77 HD13       -3.7534   -3.2628   -2.0972 H       3  LEU3        0.0232
     78 HD21       -2.9397   -5.6259   -0.3466 H       3  LEU3        0.0232
     79 HD22       -4.3644   -4.5979   -0.1147 H       3  LEU3        0.0232
     80 HD23       -3.2250   -4.8370    1.2157 H       3  LEU3        0.0232
     81 HD1        -4.5920    0.9986   -2.4861 H       4  TRP4        0.0810
     82 HE3        -3.5154    0.0103    2.5218 H       4  TRP4        0.0624
     83 HZ2        -7.1126   -2.4420    0.0825 H       4  TRP4        0.0638
     84 HZ3        -4.8093   -1.7487    3.6524 H       4  TRP4        0.0618
     85 HH2        -6.5926   -2.9732    2.4573 H       4  TRP4        0.0618
@<TRIPOS>BOND
     1     1    18    2
     2     2    19    2
     3     3    24    2
     4     4    29    2
     5     5    31    2
     6     6    35   ar
     7     7    35   ar
     8     8    14    1
     9     8    17    1
    10     8    19   am
    11     9    18   am
    12     9    20    1
    13    10    21    1
    14    10    29   am
    15    11    23    1
    16    11    24   am
    17    12    26    1
    18    12    31   am
    19    13    39   ar
    20    13    40   ar
    21    14    15    1
    22    14    18    1
    23    15    16    1
    24    16    17    1
    25    19    21    1
    26    20    22    1
    27    20    24    1
    28    21    25    1
    29    22    32    1
    30    22    33    1
    31    23    27    1
    32    23    31    1
    33    25    35    1
    34    26    29    1
    35    26    30    1
    36    27    28    1
    37    28    36    1
    38    28    37    1
    39    30    34    1
    40    34    38   ar
    41    34    39   ar
    42    38    40   ar
    43    38    41   ar
    44    40    42   ar
    45    41    43   ar
    46    42    44   ar
    47    43    44   ar
    48     9    45    1
    49    10    46    1
    50    11    47    1
    51    12    48    1
    52    13    49    1
    53    14    50    1
    54    15    51    1
    55    15    52    1
    56    16    53    1
    57    16    54    1
    58    17    55    1
    59    17    56    1
    60    20    57    1
    61    21    58    1
    62    22    59    1
    63    23    60    1
    64    25    61    1
    65    25    62    1
    66    26    63    1
    67    27    64    1
    68    27    65    1
    69    28    66    1
    70    30    67    1
    71    30    68    1
    72    32    69    1
    73    32    70    1
    74    32    71    1
    75    33    72    1
    76    33    73    1
    77    33    74    1
    78    36    75    1
    79    36    76    1
    80    36    77    1
    81    37    78    1
    82    37    79    1
    83    37    80    1
    84    39    81    1
    85    41    82    1
    86    42    83    1
    87    43    84    1
    88    44    85    1
@<TRIPOS>MOLECULE
16219006
 85 88 0 0 0
SMALL
GASTEIGER

@<TRIPOS>ATOM
      1 O           4.3751   -0.9545    2.2334 O.2     1  PRO1       -0.2738
      2 O           3.2772    1.1348   -1.3663 O.2     5  ASP5       -0.2735
      3 O           1.9693   -1.7636   -1.7299 O.2     2  VAL2       -0.2738
      4 O          -0.4552    2.9187    1.2367 O.2     4  TRP4       -0.2738
      5 O          -0.3657   -1.2201    1.8028 O.2     3  LEU3       -0.2738
      6 OD1         3.5137    4.6873   -1.1119 O.co2   5  ASP5       -0.5497
      7 OD2         2.9832    4.9828   -3.3100 O.co2   5  ASP5       -0.5497
      8 N           3.4888    1.8617    0.7693 N.am    1  PRO1       -0.2884
      9 N           4.2315   -1.0359   -0.0521 N.am    2  VAL2       -0.3022
     10 N           0.5169    1.9145   -0.5852 N.am    5  ASP5       -0.3021
     11 N           1.2826   -2.8271    0.1682 N.am    3  LEU3       -0.3025
     12 N          -1.0626   -0.3413   -0.1999 N.am    4  TRP4       -0.3022
     13 NE1        -5.4583   -0.7300   -1.3642 N.ar    4  TRP4       -0.3604
     14 CA          4.7337    1.1264    0.9865 C.3     1  PRO1        0.1023
     15 CB          5.3259    1.7484    2.2534 C.3     1  PRO1       -0.0243
     16 CG          4.1062    2.2838    2.9945 C.3     1  PRO1       -0.0350
     17 CD          3.2139    2.7731    1.8659 C.3     1  PRO1        0.0156
     18 C           4.4396   -0.3813    1.1470 C.2     1  PRO1        0.2342
     19 C           2.9177    1.9288   -0.4856 C.2     5  ASP5        0.2369
     20 CA          3.6888   -2.3826   -0.1009 C.3     2  VAL2        0.1017
     21 CA          1.6721    2.8277   -0.6809 C.3     5  ASP5        0.1047
     22 CB          4.5561   -3.3639   -0.9202 C.3     2  VAL2       -0.0197
     23 CA         -0.1206   -2.6160   -0.1593 C.3     3  LEU3        0.0996
     24 C           2.2516   -2.2856   -0.6528 C.2     2  VAL2        0.2342
     25 CB          1.6899    3.4869   -2.0498 C.3     5  ASP5        0.0138
     26 CA         -1.5196    0.9232    0.3873 C.3     4  TRP4        0.1034
     27 CB         -1.0039   -3.7799    0.3067 C.3     3  LEU3       -0.0236
     28 CG         -0.8991   -5.0459   -0.5713 C.3     3  LEU3       -0.0446
     29 C          -0.4013    1.9839    0.4384 C.2     4  TRP4        0.2343
     30 CB         -2.7050    1.5204   -0.3880 C.3     4  TRP4        0.0013
     31 C          -0.5284   -1.3340    0.5882 C.2     3  LEU3        0.2340
     32 CG1         5.8687   -3.6605   -0.1843 C.3     2  VAL2       -0.0605
     33 CG2         4.8671   -2.8936   -2.3441 C.3     2  VAL2       -0.0605
     34 CG         -3.8843    0.5949   -0.5024 C.ar    4  TRP4       -0.0201
     35 CG          2.8473    4.4756   -2.1625 C.2     5  ASP5        0.0440
     36 CD1         0.4596   -5.7418   -0.4653 C.3     3  LEU3       -0.0626
     37 CD2        -2.0040   -6.0326   -0.1825 C.3     3  LEU3       -0.0626
     38 CD2        -4.7092    0.1027    0.5622 C.ar    4  TRP4        0.0029
     39 CD1        -4.3862    0.0610   -1.6744 C.ar    4  TRP4        0.0060
     40 CE2        -5.6737   -0.7305   -0.0064 C.ar    4  TRP4        0.0467
     41 CE3        -4.7239    0.2838    1.9608 C.ar    4  TRP4       -0.0523
     42 CZ2        -6.6442   -1.3975    0.7517 C.ar    4  TRP4       -0.0378
     43 CZ3        -5.6846   -0.3783    2.7346 C.ar    4  TRP4       -0.0611
     44 CH2        -6.6293   -1.2076    2.1364 C.ar    4  TRP4       -0.0598
     45 H           4.0077   -0.4224   -0.8463 H       2  VAL2        0.1495
     46 H           0.6202    1.0390   -1.0835 H       5  ASP5        0.1495
     47 H           1.4983   -2.8372    1.1620 H       3  LEU3        0.1495
     48 H          -1.0415   -0.4299   -1.2080 H       4  TRP4        0.1495
     49 HE1        -6.0184   -1.2397   -2.0322 H       4  TRP4        0.1653
     50 HA          5.4140    1.2608    0.1372 H       1  PRO1        0.0597
     51 HB1         5.9767    2.5880    1.9786 H       1  PRO1        0.0288
     52 HB2         5.9127    1.0530    2.8601 H       1  PRO1        0.0288
     53 HG1         4.3541    3.0747    3.7076 H       1  PRO1        0.0281
     54 HG2         3.6132    1.4711    3.5409 H       1  PRO1        0.0281
     55 HD1         2.1559    2.7515    2.1375 H       1  PRO1        0.0465
     56 HD2         3.4903    3.7860    1.5545 H       1  PRO1        0.0465
     57 HA          3.6228   -2.7754    0.9210 H       2  VAL2        0.0597
     58 HA          1.5954    3.5877    0.0998 H       5  ASP5        0.0598
     59 HB          4.0067   -4.3115   -1.0022 H       2  VAL2        0.0318
     60 HA         -0.2438   -2.4696   -1.2380 H       3  LEU3        0.0594
     61 HB1         0.7538    4.0328   -2.2171 H       5  ASP5        0.0348
     62 HB2         1.7806    2.7422   -2.8503 H       5  ASP5        0.0348
     63 HA         -1.8061    0.7263    1.4268 H       4  TRP4        0.0598
     64 HB1        -2.0484   -3.4393    0.2947 H       3  LEU3        0.0290
     65 HB2        -0.7789   -4.0335    1.3514 H       3  LEU3        0.0290
     66 HG         -1.0594   -4.7642   -1.6195 H       3  LEU3        0.0296
     67 HB1        -2.3783    1.8073   -1.3971 H       4  TRP4        0.0337
     68 HB2        -3.0357    2.4488    0.0959 H       4  TRP4        0.0337
     69 HG11        6.4949   -2.7659   -0.1032 H       2  VAL2        0.0233
     70 HG12        6.4452   -4.4270   -0.7135 H       2  VAL2        0.0233
     71 HG13        5.6744   -4.0330    0.8272 H       2  VAL2        0.0233
     72 HG21        5.4007   -1.9380   -2.3499 H       2  VAL2        0.0233
     73 HG22        3.9554   -2.7826   -2.9375 H       2  VAL2        0.0233
     74 HG23        5.4969   -3.6274   -2.8600 H       2  VAL2        0.0233
     75 HD11        0.7399   -5.9120    0.5795 H       3  LEU3        0.0232
     76 HD12        1.2478   -5.1543   -0.9438 H       3  LEU3        0.0232
     77 HD13        0.4424   -6.7130   -0.9717 H       3  LEU3        0.0232
     78 HD21       -1.9033   -6.3506    0.8607 H       3  LEU3        0.0232
     79 HD22       -1.9689   -6.9256   -0.8152 H       3  LEU3        0.0232
     80 HD23       -2.9926   -5.5781   -0.3068 H       3  LEU3        0.0232
     81 HD1        -4.0724    0.1841   -2.7027 H       4  TRP4        0.0810
     82 HE3        -3.9944    0.9281    2.4434 H       4  TRP4        0.0624
     83 HZ2        -7.3837   -2.0412    0.2876 H       4  TRP4        0.0638
     84 HZ3        -5.6871   -0.2417    3.8131 H       4  TRP4        0.0618
     85 HH2        -7.3664   -1.7138    2.7548 H       4  TRP4        0.0618
@<TRIPOS>BOND
     1     1    18    2
     2     2    19    2
     3     3    24    2
     4     4    29    2
     5     5    31    2
     6     6    35   ar
     7     7    35   ar
     8     8    14    1
     9     8    17    1
    10     8    19   am
    11     9    18   am
    12     9    20    1
    13    10    21    1
    14    10    29   am
    15    11    23    1
    16    11    24   am
    17    12    26    1
    18    12    31   am
    19    13    39   ar
    20    13    40   ar
    21    14    15    1
    22    14    18    1
    23    15    16    1
    24    16    17    1
    25    19    21    1
    26    20    22    1
    27    20    24    1
    28    21    25    1
    29    22    32    1
    30    22    33    1
    31    23    27    1
    32    23    31    1
    33    25    35    1
    34    26    29    1
    35    26    30    1
    36    27    28    1
    37    28    36    1
    38    28    37    1
    39    30    34    1
    40    34    38   ar
    41    34    39   ar
    42    38    40   ar
    43    38    41   ar
    44    40    42   ar
    45    41    43   ar
    46    42    44   ar
    47    43    44   ar
    48     9    45    1
    49    10    46    1
    50    11    47    1
    51    12    48    1
    52    13    49    1
    53    14    50    1
    54    15    51    1
    55    15    52    1
    56    16    53    1
    57    16    54    1
    58    17    55    1
    59    17    56    1
    60    20    57    1
    61    21    58    1
    62    22    59    1
    63    23    60    1
    64    25    61    1
    65    25    62    1
    66    26    63    1
    67    27    64    1
    68    27    65    1
    69    28    66    1
    70    30    67    1
    71    30    68    1
    72    32    69    1
    73    32    70    1
    74    32    71    1
    75    33    72    1
    76    33    73    1
    77    33    74    1
    78    36    75    1
    79    36    76    1
    80    36    77    1
    81    37    78    1
    82    37    79    1
    83    37    80    1
    84    39    81    1
    85    41    82    1
    86    42    83    1
    87    43    84    1
    88    44    85    1
@<TRIPOS>MOLECULE
16219006
 85 88 0 0 0
SMALL
GASTEIGER

@<TRIPOS>ATOM
      1 O           4.3771   -0.9743    2.2294 O.2     1  PRO1       -0.2738
      2 O           3.2974    1.1322   -1.3734 O.2     5  ASP5       -0.2735
      3 O           1.9703   -1.7726   -1.7334 O.2     2  VAL2       -0.2738
      4 O          -0.4463    2.9248    1.2322 O.2     4  TRP4       -0.2738
      5 O          -0.3505   -1.2143    1.8054 O.2     3  LEU3       -0.2738
      6 OD1         3.5281    4.6665   -1.1324 O.co2   5  ASP5       -0.5497
      7 OD2         2.8726    5.0851   -3.2760 O.co2   5  ASP5       -0.5497
      8 N           3.4986    1.8473    0.7674 N.am    1  PRO1       -0.2884
      9 N           4.2360   -1.0493   -0.0561 N.am    2  VAL2       -0.3022
     10 N           0.5318    1.9019   -0.5758 N.am    5  ASP5       -0.3021
     11 N           1.2849   -2.8307    0.1683 N.am    3  LEU3       -0.3025
     12 N          -1.0592   -0.3408   -0.1934 N.am    4  TRP4       -0.3022
     13 NE1        -5.4485   -0.7209   -1.3667 N.ar    4  TRP4       -0.3604
     14 CA          4.7412    1.1094    0.9890 C.3     1  PRO1        0.1023
     15 CB          5.3274    1.7271    2.2608 C.3     1  PRO1       -0.0243
     16 CG          4.1037    2.2579    2.9985 C.3     1  PRO1       -0.0350
     17 CD          3.2166    2.7520    1.8680 C.3     1  PRO1        0.0156
     18 C           4.4434   -0.3980    1.1448 C.2     1  PRO1        0.2342
     19 C           2.9330    1.9215   -0.4900 C.2     5  ASP5        0.2369
     20 CA          3.6916   -2.3953   -0.1083 C.3     2  VAL2        0.1017
     21 CA          1.6844    2.8170   -0.6814 C.3     5  ASP5        0.1047
     22 CB          4.5564   -3.3751   -0.9321 C.3     2  VAL2       -0.0197
     23 CA         -0.1184   -2.6154   -0.1556 C.3     3  LEU3        0.0996
     24 C           2.2535   -2.2946   -0.6568 C.2     2  VAL2        0.2342
     25 CB          1.6882    3.4742   -2.0513 C.3     5  ASP5        0.0138
     26 CA         -1.5114    0.9255    0.3940 C.3     4  TRP4        0.1034
     27 CB         -1.0043   -3.7768    0.3123 C.3     3  LEU3       -0.0236
     28 CG         -0.9052   -5.0426   -0.5665 C.3     3  LEU3       -0.0446
     29 C          -0.3919    1.9829    0.4425 C.2     4  TRP4        0.2343
     30 CB         -2.6959    1.5259   -0.3814 C.3     4  TRP4        0.0013
     31 C          -0.5209   -1.3323    0.5926 C.2     3  LEU3        0.2340
     32 CG1         5.8681   -3.6785   -0.1976 C.3     2  VAL2       -0.0605
     33 CG2         4.8685   -2.8995   -2.3540 C.3     2  VAL2       -0.0605
     34 CG         -3.8755    0.6016   -0.4998 C.ar    4  TRP4       -0.0201
     35 CG          2.8104    4.5010   -2.1571 C.2     5  ASP5        0.0440
     36 CD1         0.4511   -5.7432   -0.4629 C.3     3  LEU3       -0.0626
     37 CD2        -2.0132   -6.0255   -0.1772 C.3     3  LEU3       -0.0626
     38 CD2        -4.7016    0.1069    0.5625 C.ar    4  TRP4        0.0029
     39 CD1        -4.3760    0.0708   -1.6738 C.ar    4  TRP4        0.0060
     40 CE2        -5.6653   -0.7252   -0.0094 C.ar    4  TRP4        0.0467
     41 CE3        -4.7178    0.2846    1.9616 C.ar    4  TRP4       -0.0523
     42 CZ2        -6.6364   -1.3942    0.7463 C.ar    4  TRP4       -0.0378
     43 CZ3        -5.6790   -0.3796    2.7327 C.ar    4  TRP4       -0.0611
     44 CH2        -6.6228   -1.2077    2.1314 C.ar    4  TRP4       -0.0598
     45 H           4.0153   -0.4337   -0.8496 H       2  VAL2        0.1495
     46 H           0.6327    1.0231   -1.0690 H       5  ASP5        0.1495
     47 H           1.5032   -2.8398    1.1615 H       3  LEU3        0.1495
     48 H          -1.0463   -0.4311   -1.2019 H       4  TRP4        0.1495
     49 HE1        -6.0079   -1.2289   -2.0369 H       4  TRP4        0.1653
     50 HA          5.4262    1.2446    0.1433 H       1  PRO1        0.0597
     51 HB1         5.9784    2.5685    1.9925 H       1  PRO1        0.0288
     52 HB2         5.9123    1.0297    2.8674 H       1  PRO1        0.0288
     53 HG1         4.3474    3.0453    3.7169 H       1  PRO1        0.0281
     54 HG2         3.6086    1.4422    3.5386 H       1  PRO1        0.0281
     55 HD1         2.1574    2.7268    2.1343 H       1  PRO1        0.0465
     56 HD2         3.4927    3.7670    1.5634 H       1  PRO1        0.0465
     57 HA          3.6273   -2.7914    0.9124 H       2  VAL2        0.0597
     58 HA          1.6105    3.5786    0.0980 H       5  ASP5        0.0598
     59 HB          4.0045   -4.3210   -1.0182 H       2  VAL2        0.0318
     60 HA         -0.2439   -2.4688   -1.2340 H       3  LEU3        0.0594
     61 HB1         0.7341    3.9873   -2.2251 H       5  ASP5        0.0348
     62 HB2         1.8101    2.7339   -2.8515 H       5  ASP5        0.0348
     63 HA         -1.7979    0.7295    1.4337 H       4  TRP4        0.0598
     64 HB1        -2.0480   -3.4330    0.3029 H       3  LEU3        0.0290
     65 HB2        -0.7777   -4.0313    1.3564 H       3  LEU3        0.0290
     66 HG         -1.0660   -4.7597   -1.6145 H       3  LEU3        0.0296
     67 HB1        -2.3677    1.8152   -1.3893 H       4  TRP4        0.0337
     68 HB2        -3.0263    2.4535    0.1045 H       4  TRP4        0.0337
     69 HG11        6.4964   -2.7855   -0.1117 H       2  VAL2        0.0233
     70 HG12        6.4431   -4.4434   -0.7306 H       2  VAL2        0.0233
     71 HG13        5.6729   -4.0557    0.8119 H       2  VAL2        0.0233
     72 HG21        5.4056   -1.9457   -2.3556 H       2  VAL2        0.0233
     73 HG22        3.9572   -2.7825   -2.9465 H       2  VAL2        0.0233
     74 HG23        5.4957   -3.6331   -2.8733 H       2  VAL2        0.0233
     75 HD11        0.7324   -5.9147    0.5816 H       3  LEU3        0.0232
     76 HD12        1.2407   -5.1583   -0.9422 H       3  LEU3        0.0232
     77 HD13        0.4299   -6.7143   -0.9693 H       3  LEU3        0.0232
     78 HD21       -1.9124   -6.3448    0.8656 H       3  LEU3        0.0232
     79 HD22       -1.9819   -6.9184   -0.8108 H       3  LEU3        0.0232
     80 HD23       -3.0003   -5.5676   -0.3001 H       3  LEU3        0.0232
     81 HD1        -4.0608    0.1965   -2.7014 H       4  TRP4        0.0810
     82 HE3        -3.9890    0.9280    2.4464 H       4  TRP4        0.0624
     83 HZ2        -7.3751   -2.0370    0.2797 H       4  TRP4        0.0638
     84 HZ3        -5.6828   -0.2455    3.8115 H       4  TRP4        0.0618
     85 HH2        -7.3604   -1.7156    2.7478 H       4  TRP4        0.0618
@<TRIPOS>BOND
     1     1    18    2
     2     2    19    2
     3     3    24    2
     4     4    29    2
     5     5    31    2
     6     6    35   ar
     7     7    35   ar
     8     8    14    1
     9     8    17    1
    10     8    19   am
    11     9    18   am
    12     9    20    1
    13    10    21    1
    14    10    29   am
    15    11    23    1
    16    11    24   am
    17    12    26    1
    18    12    31   am
    19    13    39   ar
    20    13    40   ar
    21    14    15    1
    22    14    18    1
    23    15    16    1
    24    16    17    1
    25    19    21    1
    26    20    22    1
    27    20    24    1
    28    21    25    1
    29    22    32    1
    30    22    33    1
    31    23    27    1
    32    23    31    1
    33    25    35    1
    34    26    29    1
    35    26    30    1
    36    27    28    1
    37    28    36    1
    38    28    37    1
    39    30    34    1
    40    34    38   ar
    41    34    39   ar
    42    38    40   ar
    43    38    41   ar
    44    40    42   ar
    45    41    43   ar
    46    42    44   ar
    47    43    44   ar
    48     9    45    1
    49    10    46    1
    50    11    47    1
    51    12    48    1
    52    13    49    1
    53    14    50    1
    54    15    51    1
    55    15    52    1
    56    16    53    1
    57    16    54    1
    58    17    55    1
    59    17    56    1
    60    20    57    1
    61    21    58    1
    62    22    59    1
    63    23    60    1
    64    25    61    1
    65    25    62    1
    66    26    63    1
    67    27    64    1
    68    27    65    1
    69    28    66    1
    70    30    67    1
    71    30    68    1
    72    32    69    1
    73    32    70    1
    74    32    71    1
    75    33    72    1
    76    33    73    1
    77    33    74    1
    78    36    75    1
    79    36    76    1
    80    36    77    1
    81    37    78    1
    82    37    79    1
    83    37    80    1
    84    39    81    1
    85    41    82    1
    86    42    83    1
    87    43    84    1
    88    44    85    1
@<TRIPOS>MOLECULE
16219006
 85 88 0 0 0
SMALL
GASTEIGER

@<TRIPOS>ATOM
      1 O           4.5210   -0.9812    2.2179 O.2     1  PRO1       -0.2738
      2 O           3.4912    1.2747   -1.4510 O.2     5  ASP5       -0.2735
      3 O           1.9367   -1.5984   -1.7169 O.2     2  VAL2       -0.2738
      4 O          -0.2955    2.8329    1.3740 O.2     4  TRP4       -0.2738
      5 O          -0.3515   -1.3206    1.7328 O.2     3  LEU3       -0.2738
      6 OD1         0.8025    5.4013   -2.3506 O.co2   5  ASP5       -0.5497
      7 OD2        -0.7154    3.6880   -2.4118 O.co2   5  ASP5       -0.5497
      8 N           3.5200    1.8781    0.7229 N.am    1  PRO1       -0.2884
      9 N           4.1308   -1.0138   -0.0368 N.am    2  VAL2       -0.3022
     10 N           0.5971    1.7547   -0.4481 N.am    5  ASP5       -0.3021
     11 N           1.1642   -2.8996   -0.0010 N.am    3  LEU3       -0.3025
     12 N          -1.1582   -0.3188   -0.1704 N.am    4  TRP4       -0.3022
     13 NE1        -5.5782   -0.6814    0.1244 N.ar    4  TRP4       -0.3604
     14 CA          4.7508    1.1308    0.9915 C.3     1  PRO1        0.1023
     15 CB          5.2860    1.7607    2.2785 C.3     1  PRO1       -0.0243
     16 CG          4.0223    2.2088    3.0032 C.3     1  PRO1       -0.0350
     17 CD          3.1143    2.6709    1.8722 C.3     1  PRO1        0.0156
     18 C           4.4517   -0.3810    1.1469 C.2     1  PRO1        0.2342
     19 C           2.9792    1.9443   -0.5449 C.2     5  ASP5        0.2369
     20 CA          3.5726   -2.3605   -0.0749 C.3     2  VAL2        0.1017
     21 CA          1.6554    2.7202   -0.7447 C.3     5  ASP5        0.1047
     22 CB          4.4948   -3.3449   -0.8263 C.3     2  VAL2       -0.0197
     23 CA         -0.2274   -2.5851   -0.3287 C.3     3  LEU3        0.0996
     24 C           2.1641   -2.2399   -0.6924 C.2     2  VAL2        0.2342
     25 CB          1.5709    3.1895   -2.1921 C.3     5  ASP5        0.0138
     26 CA         -1.5276    0.9411    0.4915 C.3     4  TRP4        0.1034
     27 CB         -1.1419   -3.7630    0.0266 C.3     3  LEU3       -0.0236
     28 CG         -2.6339   -3.5406   -0.2950 C.3     3  LEU3       -0.0446
     29 C          -0.3367    1.9209    0.5490 C.2     4  TRP4        0.2343
     30 CB         -2.7049    1.6237   -0.2229 C.3     4  TRP4        0.0013
     31 C          -0.5803   -1.3525    0.5234 C.2     3  LEU3        0.2340
     32 CG1         4.7398   -2.9763   -2.2922 C.3     2  VAL2       -0.0605
     33 CG2         3.9777   -4.7830   -0.7312 C.3     2  VAL2       -0.0605
     34 CG         -3.9343    0.7561   -0.3370 C.ar    4  TRP4       -0.0201
     35 CG          0.4410    4.1943   -2.3179 C.2     5  ASP5        0.0440
     36 CD1        -2.8850   -3.2923   -1.7830 C.3     3  LEU3       -0.0626
     37 CD2        -3.4509   -4.7475    0.1719 C.3     3  LEU3       -0.0626
     38 CD2        -4.7626    0.6062   -1.4978 C.ar    4  TRP4        0.0029
     39 CD1        -4.4897   -0.0396    0.6483 C.ar    4  TRP4        0.0060
     40 CE2        -5.7716   -0.3051   -1.1828 C.ar    4  TRP4        0.0467
     41 CE3        -4.7448    1.1651   -2.7924 C.ar    4  TRP4       -0.0523
     42 CZ2        -6.7576   -0.6932   -2.0986 C.ar    4  TRP4       -0.0378
     43 CZ3        -5.7285    0.7949   -3.7177 C.ar    4  TRP4       -0.0611
     44 CH2        -6.7175   -0.1233   -3.3744 C.ar    4  TRP4       -0.0598
     45 H           3.9084   -0.4022   -0.8317 H       2  VAL2        0.1495
     46 H           0.4684    1.0079   -1.1178 H       5  ASP5        0.1495
     47 H           1.3397   -3.0354    0.9907 H       3  LEU3        0.1495
     48 H          -1.2308   -0.3526   -1.1808 H       4  TRP4        0.1495
     49 HE1        -6.1646   -1.3330    0.6251 H       4  TRP4        0.1653
     50 HA          5.4660    1.2549    0.1708 H       1  PRO1        0.0597
     51 HB1         5.8918    2.6414    2.0315 H       1  PRO1        0.0288
     52 HB2         5.8994    1.0879    2.8835 H       1  PRO1        0.0288
     53 HG1         4.2104    2.9978    3.7376 H       1  PRO1        0.0281
     54 HG2         3.5682    1.3591    3.5261 H       1  PRO1        0.0281
     55 HD1         2.0628    2.5110    2.1082 H       1  PRO1        0.0465
     56 HD2         3.2795    3.7268    1.6342 H       1  PRO1        0.0465
     57 HA          3.4638   -2.7168    0.9561 H       2  VAL2        0.0597
     58 HA          1.6009    3.5712   -0.0603 H       5  ASP5        0.0598
     59 HB          5.4731   -3.3195   -0.3256 H       2  VAL2        0.0318
     60 HA         -0.2984   -2.3505   -1.3947 H       3  LEU3        0.0594
     61 HB1         1.4006    2.3550   -2.8857 H       5  ASP5        0.0348
     62 HB2         2.5109    3.6700   -2.4942 H       5  ASP5        0.0348
     63 HA         -1.7929    0.7086    1.5302 H       4  TRP4        0.0598
     64 HB1        -1.0437   -3.9864    1.0984 H       3  LEU3        0.0290
     65 HB2        -0.7863   -4.6590   -0.5003 H       3  LEU3        0.0290
     66 HG         -2.9925   -2.6692    0.2636 H       3  LEU3        0.0296
     67 HB1        -2.3875    1.9246   -1.2283 H       4  TRP4        0.0337
     68 HB2        -2.9777    2.5468    0.3044 H       4  TRP4        0.0337
     69 HG11        3.8258   -3.0543   -2.8898 H       2  VAL2        0.0233
     70 HG12        5.4789   -3.6526   -2.7360 H       2  VAL2        0.0233
     71 HG13        5.1292   -1.9585   -2.3891 H       2  VAL2        0.0233
     72 HG21        3.0297   -4.9083   -1.2648 H       2  VAL2        0.0233
     73 HG22        3.8236   -5.0754    0.3132 H       2  VAL2        0.0233
     74 HG23        4.6994   -5.4822   -1.1675 H       2  VAL2        0.0233
     75 HD11       -2.4746   -4.1032   -2.3946 H       3  LEU3        0.0232
     76 HD12       -2.4340   -2.3530   -2.1150 H       3  LEU3        0.0232
     77 HD13       -3.9585   -3.2232   -1.9899 H       3  LEU3        0.0232
     78 HD21       -3.1488   -5.6599   -0.3533 H       3  LEU3        0.0232
     79 HD22       -4.5188   -4.5879   -0.0110 H       3  LEU3        0.0232
     80 HD23       -3.3194   -4.9139    1.2465 H       3  LEU3        0.0232
     81 HD1        -4.1885   -0.2152    1.6728 H       4  TRP4        0.0810
     82 HE3        -3.9797    1.8885   -3.0693 H       4  TRP4        0.0624
     83 HZ2        -7.5318   -1.4038   -1.8314 H       4  TRP4        0.0638
     84 HZ3        -5.7148    1.2370   -4.7111 H       4  TRP4        0.0618
     85 HH2        -7.4723   -0.3955   -4.1075 H       4  TRP4        0.0618
@<TRIPOS>BOND
     1     1    18    2
     2     2    19    2
     3     3    24    2
     4     4    29    2
     5     5    31    2
     6     6    35   ar
     7     7    35   ar
     8     8    14    1
     9     8    17    1
    10     8    19   am
    11     9    18   am
    12     9    20    1
    13    10    21    1
    14    10    29   am
    15    11    23    1
    16    11    24   am
    17    12    26    1
    18    12    31   am
    19    13    39   ar
    20    13    40   ar
    21    14    15    1
    22    14    18    1
    23    15    16    1
    24    16    17    1
    25    19    21    1
    26    20    22    1
    27    20    24    1
    28    21    25    1
    29    22    32    1
    30    22    33    1
    31    23    27    1
    32    23    31    1
    33    25    35    1
    34    26    29    1
    35    26    30    1
    36    27    28    1
    37    28    36    1
    38    28    37    1
    39    30    34    1
    40    34    38   ar
    41    34    39   ar
    42    38    40   ar
    43    38    41   ar
    44    40    42   ar
    45    41    43   ar
    46    42    44   ar
    47    43    44   ar
    48     9    45    1
    49    10    46    1
    50    11    47    1
    51    12    48    1
    52    13    49    1
    53    14    50    1
    54    15    51    1
    55    15    52    1
    56    16    53    1
    57    16    54    1
    58    17    55    1
    59    17    56    1
    60    20    57    1
    61    21    58    1
    62    22    59    1
    63    23    60    1
    64    25    61    1
    65    25    62    1
    66    26    63    1
    67    27    64    1
    68    27    65    1
    69    28    66    1
    70    30    67    1
    71    30    68    1
    72    32    69    1
    73    32    70    1
    74    32    71    1
    75    33    72    1
    76    33    73    1
    77    33    74    1
    78    36    75    1
    79    36    76    1
    80    36    77    1
    81    37    78    1
    82    37    79    1
    83    37    80    1
    84    39    81    1
    85    41    82    1
    86    42    83    1
    87    43    84    1
    88    44    85    1
@<TRIPOS>MOLECULE
16219006
 85 88 0 0 0
SMALL
GASTEIGER

@<TRIPOS>ATOM
      1 O           4.2213   -0.9862    2.2555 O.2     1  PRO1       -0.2738
      2 O           3.2552    1.1050   -1.3622 O.2     5  ASP5       -0.2735
      3 O           1.9436   -1.8371   -1.7513 O.2     2  VAL2       -0.2738
      4 O          -0.5489    3.0042    1.1337 O.2     4  TRP4       -0.2738
      5 O          -0.6518   -1.2507    1.8135 O.2     3  LEU3       -0.2738
      6 OD1         3.0713    4.9368   -3.3284 O.co2   5  ASP5       -0.5497
      7 OD2         3.5757    4.6640   -1.1217 O.co2   5  ASP5       -0.5497
      8 N           3.4851    1.8359    0.7699 N.am    1  PRO1       -0.2884
      9 N           4.1827   -1.1025   -0.0323 N.am    2  VAL2       -0.3022
     10 N           0.5350    1.9409   -0.5870 N.am    5  ASP5       -0.3021
     11 N           1.2039   -2.7992    0.1820 N.am    3  LEU3       -0.3025
     12 N          -1.0968   -0.3073   -0.2373 N.am    4  TRP4       -0.3022
     13 NE1        -1.9534    1.6747   -4.1226 N.ar    4  TRP4       -0.3604
     14 CA          4.7034    1.0614    0.9939 C.3     1  PRO1        0.1023
     15 CB          5.3130    1.6700    2.2588 C.3     1  PRO1       -0.0243
     16 CG          4.1104    2.2501    2.9944 C.3     1  PRO1       -0.0350
     17 CD          3.2345    2.7597    1.8618 C.3     1  PRO1        0.0156
     18 C           4.3585   -0.4347    1.1647 C.2     1  PRO1        0.2342
     19 C           2.9170    1.9150   -0.4865 C.2     5  ASP5        0.2369
     20 CA          3.6259   -2.4466   -0.0843 C.3     2  VAL2        0.1017
     21 CA          1.6934    2.8446   -0.6799 C.3     5  ASP5        0.1047
     22 CB          4.5256   -3.4170   -0.8816 C.3     2  VAL2       -0.0197
     23 CA         -0.1891   -2.5738   -0.1731 C.3     3  LEU3        0.0996
     24 C           2.1974   -2.3255   -0.6518 C.2     2  VAL2        0.2342
     25 CB          1.7192    3.5067   -2.0476 C.3     5  ASP5        0.0138
     26 CA         -1.5672    0.9835    0.2789 C.3     4  TRP4        0.1034
     27 CB         -1.0691   -3.7725    0.1928 C.3     3  LEU3       -0.0236
     28 CG         -0.7283   -5.0675   -0.5750 C.3     3  LEU3       -0.0446
     29 C          -0.4568    2.0530    0.3579 C.2     4  TRP4        0.2343
     30 CB         -2.7751    1.4978   -0.5251 C.3     4  TRP4        0.0013
     31 C          -0.6645   -1.3212    0.5846 C.2     3  LEU3        0.2340
     32 CG1         4.7641   -3.0129   -2.3387 C.3     2  VAL2       -0.0605
     33 CG2         3.9864   -4.8501   -0.8195 C.3     2  VAL2       -0.0605
     34 CG         -2.4901    1.8344   -1.9628 C.ar    4  TRP4       -0.0201
     35 CG          2.9051    4.4562   -2.1712 C.2     5  ASP5        0.0440
     36 CD1        -1.6868   -6.1827   -0.1513 C.3     3  LEU3       -0.0626
     37 CD2        -0.7854   -4.8912   -2.0942 C.3     3  LEU3       -0.0626
     38 CD2        -2.4262    3.1523   -2.5257 C.ar    4  TRP4        0.0029
     39 CD1        -2.2491    0.9499   -2.9988 C.ar    4  TRP4        0.0060
     40 CE2        -2.0897    3.0178   -3.8721 C.ar    4  TRP4        0.0467
     41 CE3        -2.6062    4.4520   -2.0083 C.ar    4  TRP4       -0.0523
     42 CZ2        -1.9168    4.1135   -4.7256 C.ar    4  TRP4       -0.0378
     43 CZ3        -2.4510    5.5589   -2.8508 C.ar    4  TRP4       -0.0611
     44 CH2        -2.1080    5.3891   -4.1891 C.ar    4  TRP4       -0.0598
     45 H           3.9870   -0.4931   -0.8372 H       2  VAL2        0.1495
     46 H           0.5863    1.1213   -1.1741 H       5  ASP5        0.1495
     47 H           1.4119   -2.8076    1.1773 H       3  LEU3        0.1495
     48 H          -0.8319   -0.3404   -1.2152 H       4  TRP4        0.1495
     49 HE1        -1.6756    1.2896   -5.0144 H       4  TRP4        0.1653
     50 HA          5.3899    1.1687    0.1454 H       1  PRO1        0.0597
     51 HB1         5.9927    2.4854    1.9815 H       1  PRO1        0.0288
     52 HB2         5.8743    0.9574    2.8702 H       1  PRO1        0.0288
     53 HG1         4.3835    3.0376    3.7020 H       1  PRO1        0.0281
     54 HG2         3.5912    1.4579    3.5467 H       1  PRO1        0.0281
     55 HD1         2.1752    2.7695    2.1307 H       1  PRO1        0.0465
     56 HD2         3.5406    3.7626    1.5462 H       1  PRO1        0.0465
     57 HA          3.5560   -2.8343    0.9392 H       2  VAL2        0.0597
     58 HA          1.6237    3.6005    0.1052 H       5  ASP5        0.0598
     59 HB          5.5093   -3.4203   -0.3912 H       2  VAL2        0.0318
     60 HA         -0.2757   -2.3805   -1.2473 H       3  LEU3        0.0594
     61 HB1         0.7993    4.0824   -2.2047 H       5  ASP5        0.0348
     62 HB2         1.7763    2.7606   -2.8501 H       5  ASP5        0.0348
     63 HA         -1.8957    0.8162    1.3132 H       4  TRP4        0.0598
     64 HB1        -2.1193   -3.5078    0.0092 H       3  LEU3        0.0290
     65 HB2        -0.9900   -3.9700    1.2706 H       3  LEU3        0.0290
     66 HG          0.2883   -5.3816   -0.3072 H       3  LEU3        0.0296
     67 HB1        -3.1863    2.3813   -0.0213 H       4  TRP4        0.0337
     68 HB2        -3.5694    0.7394   -0.5044 H       4  TRP4        0.0337
     69 HG11        3.8505   -3.0793   -2.9368 H       2  VAL2        0.0233
     70 HG12        5.5026   -3.6788   -2.7997 H       2  VAL2        0.0233
     71 HG13        5.1540   -1.9932   -2.4134 H       2  VAL2        0.0233
     72 HG21        3.0259   -4.9434   -1.3371 H       2  VAL2        0.0233
     73 HG22        3.8471   -5.1706    0.2183 H       2  VAL2        0.0233
     74 HG23        4.6880   -5.5475   -1.2902 H       2  VAL2        0.0233
     75 HD11       -2.7223   -5.9344   -0.4088 H       3  LEU3        0.0232
     76 HD12       -1.6357   -6.3509    0.9293 H       3  LEU3        0.0232
     77 HD13       -1.4315   -7.1246   -0.6483 H       3  LEU3        0.0232
     78 HD21       -1.7447   -4.4673   -2.4095 H       3  LEU3        0.0232
     79 HD22       -0.6553   -5.8519   -2.6040 H       3  LEU3        0.0232
     80 HD23        0.0134   -4.2328   -2.4495 H       3  LEU3        0.0232
     81 HD1        -2.2279   -0.1305   -3.0317 H       4  TRP4        0.0810
     82 HE3        -2.8435    4.6029   -0.9595 H       4  TRP4        0.0624
     83 HZ2        -1.6202    3.9866   -5.7612 H       4  TRP4        0.0638
     84 HZ3        -2.5731    6.5605   -2.4474 H       4  TRP4        0.0618
     85 HH2        -1.9599    6.2617   -4.8206 H       4  TRP4        0.0618
@<TRIPOS>BOND
     1     1    18    2
     2     2    19    2
     3     3    24    2
     4     4    29    2
     5     5    31    2
     6     6    35   ar
     7     7    35   ar
     8     8    14    1
     9     8    17    1
    10     8    19   am
    11     9    18   am
    12     9    20    1
    13    10    21    1
    14    10    29   am
    15    11    23    1
    16    11    24   am
    17    12    26    1
    18    12    31   am
    19    13    39   ar
    20    13    40   ar
    21    14    15    1
    22    14    18    1
    23    15    16    1
    24    16    17    1
    25    19    21    1
    26    20    22    1
    27    20    24    1
    28    21    25    1
    29    22    32    1
    30    22    33    1
    31    23    27    1
    32    23    31    1
    33    25    35    1
    34    26    29    1
    35    26    30    1
    36    27    28    1
    37    28    36    1
    38    28    37    1
    39    30    34    1
    40    34    38   ar
    41    34    39   ar
    42    38    40   ar
    43    38    41   ar
    44    40    42   ar
    45    41    43   ar
    46    42    44   ar
    47    43    44   ar
    48     9    45    1
    49    10    46    1
    50    11    47    1
    51    12    48    1
    52    13    49    1
    53    14    50    1
    54    15    51    1
    55    15    52    1
    56    16    53    1
    57    16    54    1
    58    17    55    1
    59    17    56    1
    60    20    57    1
    61    21    58    1
    62    22    59    1
    63    23    60    1
    64    25    61    1
    65    25    62    1
    66    26    63    1
    67    27    64    1
    68    27    65    1
    69    28    66    1
    70    30    67    1
    71    30    68    1
    72    32    69    1
    73    32    70    1
    74    32    71    1
    75    33    72    1
    76    33    73    1
    77    33    74    1
    78    36    75    1
    79    36    76    1
    80    36    77    1
    81    37    78    1
    82    37    79    1
    83    37    80    1
    84    39    81    1
    85    41    82    1
    86    42    83    1
    87    43    84    1
    88    44    85    1
@<TRIPOS>MOLECULE
16219006
 85 88 0 0 0
SMALL
GASTEIGER

@<TRIPOS>ATOM
      1 O           4.3717   -1.1877    2.2468 O.2     1  PRO1       -0.2738
      2 O           3.3765    1.0628   -1.4412 O.2     5  ASP5       -0.2735
      3 O           2.0061   -2.9045   -1.8721 O.2     2  VAL2       -0.2738
      4 O          -0.2420    2.9222    1.4322 O.2     4  TRP4       -0.2738
      5 O          -0.5857   -1.0241    1.8068 O.2     3  LEU3       -0.2738
      6 OD1         0.4058    1.5038   -2.9301 O.co2   5  ASP5       -0.5497
      7 OD2         1.5799    2.8060   -4.4037 O.co2   5  ASP5       -0.5497
      8 N           3.5003    1.6973    0.7227 N.am    1  PRO1       -0.2884
      9 N           3.9950   -1.2674   -0.0066 N.am    2  VAL2       -0.3022
     10 N           0.5314    1.9296   -0.4688 N.am    5  ASP5       -0.3021
     11 N           1.1887   -2.5200    0.2308 N.am    3  LEU3       -0.3025
     12 N          -1.2540   -0.1098   -0.1923 N.am    4  TRP4       -0.3022
     13 NE1        -3.6875    5.2276    0.5208 N.ar    4  TRP4       -0.3604
     14 CA          4.6887    0.8813    0.9716 C.3     1  PRO1        0.1023
     15 CB          5.2954    1.5007    2.2332 C.3     1  PRO1       -0.0243
     16 CG          4.0801    2.0287    2.9865 C.3     1  PRO1       -0.0350
     17 CD          3.1727    2.5258    1.8723 C.3     1  PRO1        0.0156
     18 C           4.3281   -0.6138    1.1596 C.2     1  PRO1        0.2342
     19 C           2.9445    1.7893   -0.5411 C.2     5  ASP5        0.2369
     20 CA          3.6132   -2.6794   -0.0488 C.3     2  VAL2        0.1017
     21 CA          1.7206    2.7210   -0.7197 C.3     5  ASP5        0.1047
     22 CB          4.6325   -3.5255   -0.8460 C.3     2  VAL2       -0.0197
     23 CA         -0.1868   -2.3110   -0.2072 C.3     3  LEU3        0.0996
     24 C           2.2055   -2.7352   -0.6724 C.2     2  VAL2        0.2342
     25 CB          1.6730    3.3446   -2.1124 C.3     5  ASP5        0.0138
     26 CA         -1.6280    1.1855    0.4001 C.3     4  TRP4        0.1034
     27 CB         -1.0486   -3.5467    0.0894 C.3     3  LEU3       -0.0236
     28 CG         -2.5352   -3.4072   -0.3029 C.3     3  LEU3       -0.0446
     29 C          -0.3687    2.0767    0.5482 C.2     4  TRP4        0.2343
     30 CB         -2.6698    1.8519   -0.5059 C.3     4  TRP4        0.0013
     31 C          -0.6892   -1.0952    0.5829 C.2     3  LEU3        0.2340
     32 CG1         4.1952   -4.9960   -0.9218 C.3     2  VAL2       -0.0605
     33 CG2         6.0266   -3.4646   -0.2102 C.3     2  VAL2       -0.0605
     34 CG         -3.2820    3.0845    0.0760 C.ar    4  TRP4       -0.0201
     35 CG          1.1984    2.4425   -3.2566 C.2     5  ASP5        0.0440
     36 CD1        -2.7268   -3.1985   -1.8055 C.3     3  LEU3       -0.0626
     37 CD2        -3.3147   -4.6456    0.1484 C.3     3  LEU3       -0.0626
     38 CD2        -4.3361    3.1594    1.0402 C.ar    4  TRP4        0.0029
     39 CD1        -2.9192    4.3816   -0.2270 C.ar    4  TRP4        0.0060
     40 CE2        -4.5693    4.5116    1.2958 C.ar    4  TRP4        0.0467
     41 CE3        -5.1112    2.2019    1.7264 C.ar    4  TRP4       -0.0523
     42 CZ2        -5.5403    4.9549    2.2013 C.ar    4  TRP4       -0.0378
     43 CZ3        -6.0871    2.6284    2.6348 C.ar    4  TRP4       -0.0611
     44 CH2        -6.2970    3.9860    2.8664 C.ar    4  TRP4       -0.0598
     45 H           3.8008   -0.6858   -0.8306 H       2  VAL2        0.1495
     46 H           0.2669    1.3831   -1.2980 H       5  ASP5        0.1495
     47 H           1.4265   -2.2077    1.1692 H       3  LEU3        0.1495
     48 H          -1.0069   -0.1006   -1.1817 H       4  TRP4        0.1495
     49 HE1        -3.6147    6.2336    0.5119 H       4  TRP4        0.1653
     50 HA          5.3904    0.9582    0.1325 H       1  PRO1        0.0597
     51 HB1         5.9405    2.3438    1.9549 H       1  PRO1        0.0288
     52 HB2         5.8904    0.8058    2.8326 H       1  PRO1        0.0288
     53 HG1         4.3327    2.8156    3.7028 H       1  PRO1        0.0281
     54 HG2         3.5930    1.2137    3.5340 H       1  PRO1        0.0281
     55 HD1         2.1188    2.4329    2.1345 H       1  PRO1        0.0465
     56 HD2         3.3967    3.5680    1.6194 H       1  PRO1        0.0465
     57 HA          3.5493   -3.0729    0.9733 H       2  VAL2        0.0597
     58 HA          1.7713    3.5378    0.0060 H       5  ASP5        0.0598
     59 HB          4.7105   -3.1380   -1.8702 H       2  VAL2        0.0318
     60 HA         -0.1891   -2.0919   -1.2790 H       3  LEU3        0.0594
     61 HB1         2.6582    3.7572   -2.3644 H       5  ASP5        0.0348
     62 HB2         0.9698    4.1887   -2.0935 H       5  ASP5        0.0348
     63 HA         -2.0255    1.0010    1.4051 H       4  TRP4        0.0598
     64 HB1        -0.9901   -3.7746    1.1629 H       3  LEU3        0.0290
     65 HB2        -0.6166   -4.4157   -0.4251 H       3  LEU3        0.0290
     66 HG         -2.9658   -2.5450    0.2206 H       3  LEU3        0.0296
     67 HB1        -3.4739    1.1341   -0.7194 H       4  TRP4        0.0337
     68 HB2        -2.2249    2.0927   -1.4807 H       4  TRP4        0.0337
     69 HG11        4.0611   -5.4208    0.0790 H       2  VAL2        0.0233
     70 HG12        4.9434   -5.5983   -1.4479 H       2  VAL2        0.0233
     71 HG13        3.2525   -5.1124   -1.4647 H       2  VAL2        0.0233
     72 HG21        6.0032   -3.8152    0.8276 H       2  VAL2        0.0233
     73 HG22        6.4260   -2.4460   -0.2179 H       2  VAL2        0.0233
     74 HG23        6.7319   -4.0960   -0.7618 H       2  VAL2        0.0233
     75 HD11       -2.2759   -4.0145   -2.3802 H       3  LEU3        0.0232
     76 HD12       -2.2807   -2.2578   -2.1404 H       3  LEU3        0.0232
     77 HD13       -3.7922   -3.1566   -2.0573 H       3  LEU3        0.0232
     78 HD21       -2.9504   -5.5501   -0.3500 H       3  LEU3        0.0232
     79 HD22       -4.3805   -4.5380   -0.0814 H       3  LEU3        0.0232
     80 HD23       -3.2227   -4.7915    1.2299 H       3  LEU3        0.0232
     81 HD1        -2.1595    4.7635   -0.8975 H       4  TRP4        0.0810
     82 HE3        -4.9505    1.1414    1.5571 H       4  TRP4        0.0624
     83 HZ2        -5.6993    6.0115    2.3862 H       4  TRP4        0.0638
     84 HZ3        -6.6819    1.8903    3.1659 H       4  TRP4        0.0618
     85 HH2        -7.0567    4.2983    3.5782 H       4  TRP4        0.0618
@<TRIPOS>BOND
     1     1    18    2
     2     2    19    2
     3     3    24    2
     4     4    29    2
     5     5    31    2
     6     6    35   ar
     7     7    35   ar
     8     8    14    1
     9     8    17    1
    10     8    19   am
    11     9    18   am
    12     9    20    1
    13    10    21    1
    14    10    29   am
    15    11    23    1
    16    11    24   am
    17    12    26    1
    18    12    31   am
    19    13    39   ar
    20    13    40   ar
    21    14    15    1
    22    14    18    1
    23    15    16    1
    24    16    17    1
    25    19    21    1
    26    20    22    1
    27    20    24    1
    28    21    25    1
    29    22    32    1
    30    22    33    1
    31    23    27    1
    32    23    31    1
    33    25    35    1
    34    26    29    1
    35    26    30    1
    36    27    28    1
    37    28    36    1
    38    28    37    1
    39    30    34    1
    40    34    38   ar
    41    34    39   ar
    42    38    40   ar
    43    38    41   ar
    44    40    42   ar
    45    41    43   ar
    46    42    44   ar
    47    43    44   ar
    48     9    45    1
    49    10    46    1
    50    11    47    1
    51    12    48    1
    52    13    49    1
    53    14    50    1
    54    15    51    1
    55    15    52    1
    56    16    53    1
    57    16    54    1
    58    17    55    1
    59    17    56    1
    60    20    57    1
    61    21    58    1
    62    22    59    1
    63    23    60    1
    64    25    61    1
    65    25    62    1
    66    26    63    1
    67    27    64    1
    68    27    65    1
    69    28    66    1
    70    30    67    1
    71    30    68    1
    72    32    69    1
    73    32    70    1
    74    32    71    1
    75    33    72    1
    76    33    73    1
    77    33    74    1
    78    36    75    1
    79    36    76    1
    80    36    77    1
    81    37    78    1
    82    37    79    1
    83    37    80    1
    84    39    81    1
    85    41    82    1
    86    42    83    1
    87    43    84    1
    88    44    85    1
@<TRIPOS>MOLECULE
16219006
 85 88 0 0 0
SMALL
GASTEIGER

@<TRIPOS>ATOM
      1 O           4.1281   -1.0392    2.2738 O.2     1  PRO1       -0.2738
      2 O           3.0458    0.9708   -1.2940 O.2     5  ASP5       -0.2735
      3 O           2.0399   -2.2690   -1.8664 O.2     2  VAL2       -0.2738
      4 O          -0.2290    2.6508    1.5254 O.2     4  TRP4       -0.2738
      5 O          -0.6024   -1.1587    1.7947 O.2     3  LEU3       -0.2738
      6 OD1         3.4879    4.7194   -0.9658 O.co2   5  ASP5       -0.5497
      7 OD2         3.2519    4.7696   -3.2325 O.co2   5  ASP5       -0.5497
      8 N           3.4436    1.7823    0.7832 N.am    1  PRO1       -0.2884
      9 N           4.1175   -1.2097   -0.0093 N.am    2  VAL2       -0.3022
     10 N           0.4110    2.0079   -0.5827 N.am    5  ASP5       -0.3021
     11 N           1.1828   -2.6886    0.2118 N.am    3  LEU3       -0.3025
     12 N          -1.2515   -0.2475   -0.2131 N.am    4  TRP4       -0.3022
     13 NE1        -3.5126    5.1038    0.6766 N.ar    4  TRP4       -0.3604
     14 CA          4.6459    0.9735    0.9665 C.3     1  PRO1        0.1023
     15 CB          5.3336    1.5822    2.1918 C.3     1  PRO1       -0.0243
     16 CG          4.1907    2.2297    2.9635 C.3     1  PRO1       -0.0350
     17 CD          3.2909    2.7507    1.8568 C.3     1  PRO1        0.0156
     18 C           4.2822   -0.5144    1.1727 C.2     1  PRO1        0.2342
     19 C           2.8022    1.8298   -0.4365 C.2     5  ASP5        0.2369
     20 CA          3.6257   -2.5820   -0.0429 C.3     2  VAL2        0.1017
     21 CA          1.6339    2.8281   -0.6252 C.3     5  ASP5        0.1047
     22 CB          4.5532   -3.4979   -0.8723 C.3     2  VAL2       -0.0197
     23 CA         -0.1938   -2.4647   -0.2061 C.3     3  LEU3        0.0996
     24 C           2.2224   -2.5075   -0.6740 C.2     2  VAL2        0.2342
     25 CB          1.7226    3.5076   -1.9818 C.3     5  ASP5        0.0138
     26 CA         -1.6456    1.0447    0.3768 C.3     4  TRP4        0.1034
     27 CB         -1.0875   -3.6702    0.1071 C.3     3  LEU3       -0.0236
     28 CG         -0.7114   -4.9648   -0.6447 C.3     3  LEU3       -0.0446
     29 C          -0.3944    1.9392    0.5366 C.2     4  TRP4        0.2343
     30 CB         -2.6915    1.7219   -0.5263 C.3     4  TRP4        0.0013
     31 C          -0.6963   -1.2372    0.5720 C.2     3  LEU3        0.2340
     32 CG1         3.9889   -4.9224   -0.9607 C.3     2  VAL2       -0.0605
     33 CG2         5.9601   -3.5587   -0.2658 C.3     2  VAL2       -0.0605
     34 CG         -3.2890    2.9798    0.0277 C.ar    4  TRP4       -0.0201
     35 CG          2.9435    4.4132   -2.0611 C.2     5  ASP5        0.0440
     36 CD1        -1.6530   -6.0960   -0.2222 C.3     3  LEU3       -0.0626
     37 CD2        -0.7591   -4.8018   -2.1650 C.3     3  LEU3       -0.0626
     38 CD2        -4.6145    3.1708    0.5398 C.ar    4  TRP4        0.0029
     39 CD1        -2.6581    4.2068    0.1014 C.ar    4  TRP4        0.0060
     40 CE2        -4.7245    4.5073    0.9302 C.ar    4  TRP4        0.0467
     41 CE3        -5.7391    2.3347    0.7029 C.ar    4  TRP4       -0.0523
     42 CZ2        -5.8960    5.0485    1.4730 C.ar    4  TRP4       -0.0378
     43 CZ3        -6.9220    2.8619    1.2367 C.ar    4  TRP4       -0.0611
     44 CH2        -6.9966    4.1999    1.6153 C.ar    4  TRP4       -0.0598
     45 H           3.9214   -0.6247   -0.8306 H       2  VAL2        0.1495
     46 H           0.4015    1.2390   -1.2371 H       5  ASP5        0.1495
     47 H           1.3817   -2.5532    1.2016 H       3  LEU3        0.1495
     48 H          -1.0821   -0.2814   -1.2103 H       4  TRP4        0.1495
     49 HE1        -3.2873    6.0680    0.8765 H       4  TRP4        0.1653
     50 HA          5.2957    1.0568    0.0867 H       1  PRO1        0.0597
     51 HB1         6.0350    2.3615    1.8683 H       1  PRO1        0.0288
     52 HB2         5.8897    0.8594    2.7958 H       1  PRO1        0.0288
     53 HG1         4.5264    3.0208    3.6395 H       1  PRO1        0.0281
     54 HG2         3.6617    1.4735    3.5553 H       1  PRO1        0.0281
     55 HD1         2.2508    2.8275    2.1764 H       1  PRO1        0.0465
     56 HD2         3.6344    3.7268    1.4982 H       1  PRO1        0.0465
     57 HA          3.5457   -2.9761    0.9769 H       2  VAL2        0.0597
     58 HA          1.5895    3.5705    0.1736 H       5  ASP5        0.0598
     59 HB          4.6431   -3.1041   -1.8932 H       2  VAL2        0.0318
     60 HA         -0.2349   -2.2404   -1.2755 H       3  LEU3        0.0594
     61 HB1         0.8297    4.1224   -2.1554 H       5  ASP5        0.0348
     62 HB2         1.7684    2.7703   -2.7935 H       5  ASP5        0.0348
     63 HA         -2.0543    0.8571    1.3770 H       4  TRP4        0.0598
     64 HB1        -2.1291   -3.4082   -0.1230 H       3  LEU3        0.0290
     65 HB2        -1.0585   -3.8719    1.1868 H       3  LEU3        0.0290
     66 HG          0.3077   -5.2581   -0.3636 H       3  LEU3        0.0296
     67 HB1        -3.4970    1.0040   -0.7298 H       4  TRP4        0.0337
     68 HB2        -2.2521    1.9503   -1.5069 H       4  TRP4        0.0337
     69 HG11        3.8437   -5.3534    0.0360 H       2  VAL2        0.0233
     70 HG12        4.6695   -5.5771   -1.5156 H       2  VAL2        0.0233
     71 HG13        3.0260   -4.9412   -1.4810 H       2  VAL2        0.0233
     72 HG21        5.9310   -3.9258    0.7661 H       2  VAL2        0.0233
     73 HG22        6.4367   -2.5735   -0.2636 H       2  VAL2        0.0233
     74 HG23        6.6029   -4.2316   -0.8440 H       2  VAL2        0.0233
     75 HD11       -2.6910   -5.8686   -0.4888 H       3  LEU3        0.0232
     76 HD12       -1.6075   -6.2576    0.8598 H       3  LEU3        0.0232
     77 HD13       -1.3767   -7.0361   -0.7114 H       3  LEU3        0.0232
     78 HD21       -1.7319   -4.4215   -2.4937 H       3  LEU3        0.0232
     79 HD22       -0.5845   -5.7609   -2.6648 H       3  LEU3        0.0232
     80 HD23        0.0138   -4.1133   -2.5180 H       3  LEU3        0.0232
     81 HD1        -1.6564    4.5110   -0.1788 H       4  TRP4        0.0810
     82 HE3        -5.6947    1.2899    0.4128 H       4  TRP4        0.0624
     83 HZ2        -5.9520    6.0904    1.7700 H       4  TRP4        0.0638
     84 HZ3        -7.7893    2.2181    1.3560 H       4  TRP4        0.0618
     85 HH2        -7.9224    4.5922    2.0286 H       4  TRP4        0.0618
@<TRIPOS>BOND
     1     1    18    2
     2     2    19    2
     3     3    24    2
     4     4    29    2
     5     5    31    2
     6     6    35   ar
     7     7    35   ar
     8     8    14    1
     9     8    17    1
    10     8    19   am
    11     9    18   am
    12     9    20    1
    13    10    21    1
    14    10    29   am
    15    11    23    1
    16    11    24   am
    17    12    26    1
    18    12    31   am
    19    13    39   ar
    20    13    40   ar
    21    14    15    1
    22    14    18    1
    23    15    16    1
    24    16    17    1
    25    19    21    1
    26    20    22    1
    27    20    24    1
    28    21    25    1
    29    22    32    1
    30    22    33    1
    31    23    27    1
    32    23    31    1
    33    25    35    1
    34    26    29    1
    35    26    30    1
    36    27    28    1
    37    28    36    1
    38    28    37    1
    39    30    34    1
    40    34    38   ar
    41    34    39   ar
    42    38    40   ar
    43    38    41   ar
    44    40    42   ar
    45    41    43   ar
    46    42    44   ar
    47    43    44   ar
    48     9    45    1
    49    10    46    1
    50    11    47    1
    51    12    48    1
    52    13    49    1
    53    14    50    1
    54    15    51    1
    55    15    52    1
    56    16    53    1
    57    16    54    1
    58    17    55    1
    59    17    56    1
    60    20    57    1
    61    21    58    1
    62    22    59    1
    63    23    60    1
    64    25    61    1
    65    25    62    1
    66    26    63    1
    67    27    64    1
    68    27    65    1
    69    28    66    1
    70    30    67    1
    71    30    68    1
    72    32    69    1
    73    32    70    1
    74    32    71    1
    75    33    72    1
    76    33    73    1
    77    33    74    1
    78    36    75    1
    79    36    76    1
    80    36    77    1
    81    37    78    1
    82    37    79    1
    83    37    80    1
    84    39    81    1
    85    41    82    1
    86    42    83    1
    87    43    84    1
    88    44    85    1
@<TRIPOS>MOLECULE
16219006
 85 88 0 0 0
SMALL
GASTEIGER

@<TRIPOS>ATOM
      1 O           4.3864   -1.0075    2.2541 O.2     1  PRO1       -0.2738
      2 O           3.3803    1.1758   -1.4272 O.2     5  ASP5       -0.2735
      3 O           2.1336   -2.0045   -1.8600 O.2     2  VAL2       -0.2738
      4 O          -0.3819    2.8306    1.3651 O.2     4  TRP4       -0.2738
      5 O          -0.2445   -1.2173    1.7343 O.2     3  LEU3       -0.2738
      6 OD1        -0.7299    3.6564   -2.5425 O.co2   5  ASP5       -0.5497
      7 OD2         0.6734    5.3798   -1.9910 O.co2   5  ASP5       -0.5497
      8 N           3.4628    1.8250    0.7350 N.am    1  PRO1       -0.2884
      9 N           4.1777   -1.0995   -0.0227 N.am    2  VAL2       -0.3022
     10 N           0.5221    1.7556   -0.4546 N.am    5  ASP5       -0.3021
     11 N           1.2736   -2.8268    0.0980 N.am    3  LEU3       -0.3025
     12 N          -1.1807   -0.3326   -0.1660 N.am    4  TRP4       -0.3022
     13 NE1        -5.5250   -0.9321    0.0039 N.ar    4  TRP4       -0.3604
     14 CA          4.6930    1.0770    0.9970 C.3     1  PRO1        0.1023
     15 CB          5.2421    1.7123    2.2758 C.3     1  PRO1       -0.0243
     16 CG          3.9881    2.1797    3.0058 C.3     1  PRO1       -0.0350
     17 CD          3.0792    2.6405    1.8763 C.3     1  PRO1        0.0156
     18 C           4.4021   -0.4347    1.1659 C.2     1  PRO1        0.2342
     19 C           2.9068    1.8817   -0.5273 C.2     5  ASP5        0.2369
     20 CA          3.7019   -2.4794   -0.0621 C.3     2  VAL2        0.1017
     21 CA          1.6064    2.6991   -0.7206 C.3     5  ASP5        0.1047
     22 CB          4.6412   -3.3928   -0.8793 C.3     2  VAL2       -0.0197
     23 CA         -0.0999   -2.5311   -0.2910 C.3     3  LEU3        0.0996
     24 C           2.3093   -2.4121   -0.7135 C.2     2  VAL2        0.2342
     25 CB          1.5399    3.2050   -2.1545 C.3     5  ASP5        0.0138
     26 CA         -1.5927    0.9216    0.4830 C.3     4  TRP4        0.1034
     27 CB         -1.0492   -3.6873    0.0393 C.3     3  LEU3       -0.0236
     28 CG         -0.7258   -5.0054   -0.6921 C.3     3  LEU3       -0.0446
     29 C          -0.4163    1.9201    0.5392 C.2     4  TRP4        0.2343
     30 CB         -2.7849    1.5596   -0.2445 C.3     4  TRP4        0.0013
     31 C          -0.5026   -1.2988    0.5329 C.2     3  LEU3        0.2340
     32 CG1         4.0842   -4.8198   -0.9750 C.3     2  VAL2       -0.0605
     33 CG2         6.0406   -3.4467   -0.2563 C.3     2  VAL2       -0.0605
     34 CG         -4.0226    0.6923   -0.3135 C.ar    4  TRP4       -0.0201
     35 CG          0.3791    4.1763   -2.2271 C.2     5  ASP5        0.0440
     36 CD1        -1.7046   -6.0946   -0.2470 C.3     3  LEU3       -0.0626
     37 CD2        -0.7724   -4.8582   -2.2135 C.3     3  LEU3       -0.0626
     38 CD2        -5.1583    0.9295   -1.1584 C.ar    4  TRP4        0.0029
     39 CD1        -4.3052   -0.4582    0.4017 C.ar    4  TRP4        0.0060
     40 CE2        -6.0730   -0.1018   -0.9428 C.ar    4  TRP4        0.0467
     41 CE3        -5.4887    1.9333   -2.0915 C.ar    4  TRP4       -0.0523
     42 CZ2        -7.2986   -0.1848   -1.6151 C.ar    4  TRP4       -0.0378
     43 CZ3        -6.7141    1.8719   -2.7662 C.ar    4  TRP4       -0.0611
     44 CH2        -7.6037    0.8261   -2.5308 C.ar    4  TRP4       -0.0598
     45 H           3.9653   -0.5092   -0.8362 H       2  VAL2        0.1495
     46 H           0.3672    1.0441   -1.1544 H       5  ASP5        0.1495
     47 H           1.4471   -2.7862    1.0997 H       3  LEU3        0.1495
     48 H          -1.2844   -0.3950   -1.1724 H       4  TRP4        0.1495
     49 HE1        -5.9667   -1.7684    0.3570 H       4  TRP4        0.1653
     50 HA          5.4019    1.1994    0.1693 H       1  PRO1        0.0597
     51 HB1         5.8559    2.5845    2.0182 H       1  PRO1        0.0288
     52 HB2         5.8533    1.0375    2.8825 H       1  PRO1        0.0288
     53 HG1         4.1899    2.9723    3.7314 H       1  PRO1        0.0281
     54 HG2         3.5289    1.3391    3.5391 H       1  PRO1        0.0281
     55 HD1         2.0252    2.5041    2.1202 H       1  PRO1        0.0465
     56 HD2         3.2632    3.6902    1.6229 H       1  PRO1        0.0465
     57 HA          3.6109   -2.8703    0.9578 H       2  VAL2        0.0597
     58 HA          1.5675    3.5338   -0.0153 H       5  ASP5        0.0598
     59 HB          4.7402   -2.9991   -1.8994 H       2  VAL2        0.0318
     60 HA         -0.1549   -2.2819   -1.3551 H       3  LEU3        0.0594
     61 HB1         1.3997    2.3915   -2.8770 H       5  ASP5        0.0348
     62 HB2         2.4661    3.7248   -2.4289 H       5  ASP5        0.0348
     63 HA         -1.8562    0.6916    1.5231 H       4  TRP4        0.0598
     64 HB1        -2.0777   -3.3813   -0.1953 H       3  LEU3        0.0290
     65 HB2        -1.0305   -3.8736    1.1221 H       3  LEU3        0.0290
     66 HG          0.2832   -5.3319   -0.4109 H       3  LEU3        0.0296
     67 HB1        -2.4882    1.8145   -1.2703 H       4  TRP4        0.0337
     68 HB2        -3.0538    2.5034    0.2473 H       4  TRP4        0.0337
     69 HG11        3.9251   -5.2508    0.0196 H       2  VAL2        0.0233
     70 HG12        4.7758   -5.4723   -1.5188 H       2  VAL2        0.0233
     71 HG13        3.1297   -4.8424   -1.5105 H       2  VAL2        0.0233
     72 HG21        6.0010   -3.8133    0.7752 H       2  VAL2        0.0233
     73 HG22        6.5123   -2.4591   -0.2494 H       2  VAL2        0.0233
     74 HG23        6.6936   -4.1167   -0.8265 H       2  VAL2        0.0233
     75 HD11       -2.7356   -5.8341   -0.5101 H       3  LEU3        0.0232
     76 HD12       -1.6573   -6.2411    0.8372 H       3  LEU3        0.0232
     77 HD13       -1.4646   -7.0514   -0.7228 H       3  LEU3        0.0232
     78 HD21       -1.7354   -4.4548   -2.5441 H       3  LEU3        0.0232
     79 HD22       -0.6255   -5.8273   -2.7023 H       3  LEU3        0.0232
     80 HD23        0.0186   -4.1938   -2.5741 H       3  LEU3        0.0232
     81 HD1        -3.7343   -0.9882    1.1526 H       4  TRP4        0.0810
     82 HE3        -4.7977    2.7513   -2.2845 H       4  TRP4        0.0624
     83 HZ2        -7.9913   -0.9991   -1.4335 H       4  TRP4        0.0638
     84 HZ3        -6.9670    2.6516   -3.4800 H       4  TRP4        0.0618
     85 HH2        -8.5490    0.7960   -3.0664 H       4  TRP4        0.0618
@<TRIPOS>BOND
     1     1    18    2
     2     2    19    2
     3     3    24    2
     4     4    29    2
     5     5    31    2
     6     6    35   ar
     7     7    35   ar
     8     8    14    1
     9     8    17    1
    10     8    19   am
    11     9    18   am
    12     9    20    1
    13    10    21    1
    14    10    29   am
    15    11    23    1
    16    11    24   am
    17    12    26    1
    18    12    31   am
    19    13    39   ar
    20    13    40   ar
    21    14    15    1
    22    14    18    1
    23    15    16    1
    24    16    17    1
    25    19    21    1
    26    20    22    1
    27    20    24    1
    28    21    25    1
    29    22    32    1
    30    22    33    1
    31    23    27    1
    32    23    31    1
    33    25    35    1
    34    26    29    1
    35    26    30    1
    36    27    28    1
    37    28    36    1
    38    28    37    1
    39    30    34    1
    40    34    38   ar
    41    34    39   ar
    42    38    40   ar
    43    38    41   ar
    44    40    42   ar
    45    41    43   ar
    46    42    44   ar
    47    43    44   ar
    48     9    45    1
    49    10    46    1
    50    11    47    1
    51    12    48    1
    52    13    49    1
    53    14    50    1
    54    15    51    1
    55    15    52    1
    56    16    53    1
    57    16    54    1
    58    17    55    1
    59    17    56    1
    60    20    57    1
    61    21    58    1
    62    22    59    1
    63    23    60    1
    64    25    61    1
    65    25    62    1
    66    26    63    1
    67    27    64    1
    68    27    65    1
    69    28    66    1
    70    30    67    1
    71    30    68    1
    72    32    69    1
    73    32    70    1
    74    32    71    1
    75    33    72    1
    76    33    73    1
    77    33    74    1
    78    36    75    1
    79    36    76    1
    80    36    77    1
    81    37    78    1
    82    37    79    1
    83    37    80    1
    84    39    81    1
    85    41    82    1
    86    42    83    1
    87    43    84    1
    88    44    85    1
@<TRIPOS>MOLECULE
16219006
 85 88 0 0 0
SMALL
GASTEIGER

@<TRIPOS>ATOM
      1 O           4.2052   -0.9956    2.2276 O.2     1  PRO1       -0.2738
      2 O           3.2826    1.0914   -1.4007 O.2     5  ASP5       -0.2735
      3 O           2.0132   -1.8009   -1.8090 O.2     2  VAL2       -0.2738
      4 O          -0.3932    3.0238    1.1975 O.2     4  TRP4       -0.2738
      5 O          -0.3268   -1.2309    1.7402 O.2     3  LEU3       -0.2738
      6 OD1         2.8968    5.0753   -3.3476 O.co2   5  ASP5       -0.5497
      7 OD2         3.5915    4.6282   -1.2228 O.co2   5  ASP5       -0.5497
      8 N           3.4934    1.8259    0.7315 N.am    1  PRO1       -0.2884
      9 N           4.2093   -1.1229   -0.0608 N.am    2  VAL2       -0.3022
     10 N           0.5361    1.9446   -0.6034 N.am    5  ASP5       -0.3021
     11 N           1.2182   -2.8492    0.0564 N.am    3  LEU3       -0.3025
     12 N          -1.0758   -0.2528   -0.1955 N.am    4  TRP4       -0.3022
     13 NE1        -5.6245   -0.4074   -1.2754 N.ar    4  TRP4       -0.3604
     14 CA          4.7075    1.0469    0.9671 C.3     1  PRO1        0.1023
     15 CB          5.3087    1.6553    2.2366 C.3     1  PRO1       -0.0243
     16 CG          4.1045    2.2481    2.9583 C.3     1  PRO1       -0.0350
     17 CD          3.2441    2.7597    1.8155 C.3     1  PRO1        0.0156
     18 C           4.3610   -0.4490    1.1370 C.2     1  PRO1        0.2342
     19 C           2.9362    1.9023   -0.5300 C.2     5  ASP5        0.2369
     20 CA          3.6443   -2.4656   -0.1170 C.3     2  VAL2        0.1017
     21 CA          1.7110    2.8290   -0.7351 C.3     5  ASP5        0.1047
     22 CB          4.5560   -3.4473   -0.8858 C.3     2  VAL2       -0.0197
     23 CA         -0.1665   -2.5389   -0.2919 C.3     3  LEU3        0.0996
     24 C           2.2346   -2.3345   -0.7239 C.2     2  VAL2        0.2342
     25 CB          1.7227    3.4625   -2.1156 C.3     5  ASP5        0.0138
     26 CA         -1.4787    0.9968    0.4581 C.3     4  TRP4        0.1034
     27 CB         -1.0754   -3.7185    0.0670 C.3     3  LEU3       -0.0236
     28 CG         -2.5542   -3.5315   -0.3213 C.3     3  LEU3       -0.0446
     29 C          -0.3631    2.0616    0.4312 C.2     4  TRP4        0.2343
     30 CB         -2.7406    1.6063   -0.1721 C.3     4  TRP4        0.0013
     31 C          -0.5274   -1.2868    0.5273 C.2     3  LEU3        0.2340
     32 CG1         4.8146   -3.0622   -2.3450 C.3     2  VAL2       -0.0605
     33 CG2         4.0133   -4.8787   -0.8131 C.3     2  VAL2       -0.0605
     34 CG         -3.9069    0.6663   -0.3339 C.ar    4  TRP4       -0.0201
     35 CG          2.8521    4.4800   -2.2337 C.2     5  ASP5        0.0440
     36 CD1        -2.7539   -3.3113   -1.8206 C.3     3  LEU3       -0.0626
     37 CD2        -3.3694   -4.7424    0.1371 C.3     3  LEU3       -0.0626
     38 CD2        -4.4760   -0.2368    0.6283 C.ar    4  TRP4        0.0029
     39 CD1        -4.6561    0.5327   -1.4893 C.ar    4  TRP4        0.0060
     40 CE2        -5.5268   -0.9095   -0.0004 C.ar    4  TRP4        0.0467
     41 CE3        -4.1893   -0.5711    1.9692 C.ar    4  TRP4       -0.0523
     42 CZ2        -6.2852   -1.9030    0.6327 C.ar    4  TRP4       -0.0378
     43 CZ3        -4.9275   -1.5718    2.6134 C.ar    4  TRP4       -0.0611
     44 CH2        -5.9592   -2.2293    1.9513 C.ar    4  TRP4       -0.0598
     45 H           4.0225   -0.5167   -0.8704 H       2  VAL2        0.1495
     46 H           0.6195    1.0504   -1.0722 H       5  ASP5        0.1495
     47 H           1.4071   -2.8897    1.0553 H       3  LEU3        0.1495
     48 H          -1.1321   -0.3102   -1.2046 H       4  TRP4        0.1495
     49 HE1        -6.3124   -0.7001   -1.9549 H       4  TRP4        0.1653
     50 HA          5.4019    1.1527    0.1248 H       1  PRO1        0.0597
     51 HB1         5.9983    2.4638    1.9636 H       1  PRO1        0.0288
     52 HB2         5.8578    0.9402    2.8566 H       1  PRO1        0.0288
     53 HG1         4.3769    3.0366    3.6650 H       1  PRO1        0.0281
     54 HG2         3.5732    1.4627    3.5089 H       1  PRO1        0.0281
     55 HD1         2.1839    2.7831    2.0775 H       1  PRO1        0.0465
     56 HD2         3.5630    3.7571    1.4950 H       1  PRO1        0.0465
     57 HA          3.5453   -2.8431    0.9073 H       2  VAL2        0.0597
     58 HA          1.6618    3.6058    0.0314 H       5  ASP5        0.0598
     59 HB          5.5319   -3.4454   -0.3812 H       2  VAL2        0.0318
     60 HA         -0.2282   -2.3221   -1.3618 H       3  LEU3        0.0594
     61 HB1         0.7730    3.9799   -2.2995 H       5  ASP5        0.0348
     62 HB2         1.8417    2.7093   -2.9036 H       5  ASP5        0.0348
     63 HA         -1.6525    0.7852    1.5179 H       4  TRP4        0.0598
     64 HB1        -1.0158   -3.9065    1.1482 H       3  LEU3        0.0290
     65 HB2        -0.6876   -4.6244   -0.4182 H       3  LEU3        0.0290
     66 HG         -2.9423   -2.6568    0.2060 H       3  LEU3        0.0296
     67 HB1        -2.4836    2.0115   -1.1610 H       4  TRP4        0.0337
     68 HB2        -3.0713    2.4657    0.4257 H       4  TRP4        0.0337
     69 HG11        3.9076   -3.1326   -2.9531 H       2  VAL2        0.0233
     70 HG12        5.5559   -3.7364   -2.7885 H       2  VAL2        0.0233
     71 HG13        5.2083   -2.0448   -2.4267 H       2  VAL2        0.0233
     72 HG21        3.0588   -4.9764   -1.3405 H       2  VAL2        0.0233
     73 HG22        3.8611   -5.1861    0.2272 H       2  VAL2        0.0233
     74 HG23        4.7185   -5.5831   -1.2668 H       2  VAL2        0.0233
     75 HD11       -2.3028   -4.1207   -2.4045 H       3  LEU3        0.0232
     76 HD12       -2.3131   -2.3658   -2.1498 H       3  LEU3        0.0232
     77 HD13       -3.8202   -3.2685   -2.0688 H       3  LEU3        0.0232
     78 HD21       -3.0269   -5.6602   -0.3525 H       3  LEU3        0.0232
     79 HD22       -4.4305   -4.6091   -0.0976 H       3  LEU3        0.0232
     80 HD23       -3.2835   -4.8814    1.2201 H       3  LEU3        0.0232
     81 HD1        -4.5798    1.0349   -2.4450 H       4  TRP4        0.0810
     82 HE3        -3.3865   -0.0794    2.5104 H       4  TRP4        0.0624
     83 HZ2        -7.0922   -2.4137    0.1187 H       4  TRP4        0.0638
     84 HZ3        -4.6820   -1.8382    3.6380 H       4  TRP4        0.0618
     85 HH2        -6.5180   -3.0062    2.4660 H       4  TRP4        0.0618
@<TRIPOS>BOND
     1     1    18    2
     2     2    19    2
     3     3    24    2
     4     4    29    2
     5     5    31    2
     6     6    35   ar
     7     7    35   ar
     8     8    14    1
     9     8    17    1
    10     8    19   am
    11     9    18   am
    12     9    20    1
    13    10    21    1
    14    10    29   am
    15    11    23    1
    16    11    24   am
    17    12    26    1
    18    12    31   am
    19    13    39   ar
    20    13    40   ar
    21    14    15    1
    22    14    18    1
    23    15    16    1
    24    16    17    1
    25    19    21    1
    26    20    22    1
    27    20    24    1
    28    21    25    1
    29    22    32    1
    30    22    33    1
    31    23    27    1
    32    23    31    1
    33    25    35    1
    34    26    29    1
    35    26    30    1
    36    27    28    1
    37    28    36    1
    38    28    37    1
    39    30    34    1
    40    34    38   ar
    41    34    39   ar
    42    38    40   ar
    43    38    41   ar
    44    40    42   ar
    45    41    43   ar
    46    42    44   ar
    47    43    44   ar
    48     9    45    1
    49    10    46    1
    50    11    47    1
    51    12    48    1
    52    13    49    1
    53    14    50    1
    54    15    51    1
    55    15    52    1
    56    16    53    1
    57    16    54    1
    58    17    55    1
    59    17    56    1
    60    20    57    1
    61    21    58    1
    62    22    59    1
    63    23    60    1
    64    25    61    1
    65    25    62    1
    66    26    63    1
    67    27    64    1
    68    27    65    1
    69    28    66    1
    70    30    67    1
    71    30    68    1
    72    32    69    1
    73    32    70    1
    74    32    71    1
    75    33    72    1
    76    33    73    1
    77    33    74    1
    78    36    75    1
    79    36    76    1
    80    36    77    1
    81    37    78    1
    82    37    79    1
    83    37    80    1
    84    39    81    1
    85    41    82    1
    86    42    83    1
    87    43    84    1
    88    44    85    1
@<TRIPOS>MOLECULE
16219006
 85 88 0 0 0
SMALL
GASTEIGER

@<TRIPOS>ATOM
      1 O           4.3828   -0.9897    2.2518 O.2     1  PRO1       -0.2738
      2 O           3.3632    1.1771   -1.4258 O.2     5  ASP5       -0.2735
      3 O           2.1160   -1.9828   -1.8457 O.2     2  VAL2       -0.2738
      4 O          -0.3675    2.8122    1.3936 O.2     4  TRP4       -0.2738
      5 O          -0.2541   -1.2429    1.7528 O.2     3  LEU3       -0.2738
      6 OD1         0.7427    5.4042   -2.1812 O.co2   5  ASP5       -0.5497
      7 OD2        -0.7543    3.6917   -2.4445 O.co2   5  ASP5       -0.5497
      8 N           3.4532    1.8381    0.7293 N.am    1  PRO1       -0.2884
      9 N           4.1695   -1.0895   -0.0243 N.am    2  VAL2       -0.3022
     10 N           0.5078    1.7580   -0.4521 N.am    5  ASP5       -0.3021
     11 N           1.2681   -2.8396    0.1025 N.am    3  LEU3       -0.3025
     12 N          -1.1808   -0.3433   -0.1428 N.am    4  TRP4       -0.3022
     13 NE1        -5.5221   -0.9449   -0.0070 N.ar    4  TRP4       -0.3604
     14 CA          4.6856    1.0907    0.9871 C.3     1  PRO1        0.1023
     15 CB          5.2428    1.7305    2.2598 C.3     1  PRO1       -0.0243
     16 CG          3.9937    2.2041    2.9944 C.3     1  PRO1       -0.0350
     17 CD          3.0789    2.6605    1.8684 C.3     1  PRO1        0.0156
     18 C           4.3959   -0.4208    1.1618 C.2     1  PRO1        0.2342
     19 C           2.8914    1.8872   -0.5293 C.2     5  ASP5        0.2369
     20 CA          3.6941   -2.4696   -0.0593 C.3     2  VAL2        0.1017
     21 CA          1.5898    2.7018   -0.7275 C.3     5  ASP5        0.1047
     22 CB          4.6303   -3.3833   -0.8797 C.3     2  VAL2       -0.0197
     23 CA         -0.1079   -2.5457   -0.2790 C.3     3  LEU3        0.0996
     24 C           2.2986   -2.4040   -0.7050 C.2     2  VAL2        0.2342
     25 CB          1.5251    3.1920   -2.1682 C.3     5  ASP5        0.0138
     26 CA         -1.5897    0.9103    0.5103 C.3     4  TRP4        0.1034
     27 CB         -1.0523   -3.7069    0.0496 C.3     3  LEU3       -0.0236
     28 CG         -0.7282   -5.0211   -0.6890 C.3     3  LEU3       -0.0446
     29 C          -0.4129    1.9095    0.5596 C.2     4  TRP4        0.2343
     30 CB         -2.7830    1.5517   -0.2121 C.3     4  TRP4        0.0013
     31 C          -0.5086   -1.3172    0.5510 C.2     3  LEU3        0.2340
     32 CG1         4.0735   -4.8104   -0.9740 C.3     2  VAL2       -0.0605
     33 CG2         6.0319   -3.4367   -0.2620 C.3     2  VAL2       -0.0605
     34 CG         -4.0191    0.6839   -0.2954 C.ar    4  TRP4       -0.0201
     35 CG          0.3921    4.1948   -2.2633 C.2     5  ASP5        0.0440
     36 CD1        -1.7053   -6.1141   -0.2490 C.3     3  LEU3       -0.0626
     37 CD2        -0.7760   -4.8670   -2.2097 C.3     3  LEU3       -0.0626
     38 CD2        -5.1493    0.9302   -1.1448 C.ar    4  TRP4        0.0029
     39 CD1        -4.3058   -0.4740    0.4057 C.ar    4  TRP4        0.0060
     40 CE2        -6.0645   -0.1043   -0.9477 C.ar    4  TRP4        0.0467
     41 CE3        -5.4735    1.9444   -2.0686 C.ar    4  TRP4       -0.0523
     42 CZ2        -7.2848   -0.1803   -1.6304 C.ar    4  TRP4       -0.0378
     43 CZ3        -6.6933    1.8906   -2.7531 C.ar    4  TRP4       -0.0611
     44 CH2        -7.5836    0.8412   -2.5369 C.ar    4  TRP4       -0.0598
     45 H           3.9522   -0.5014   -0.8380 H       2  VAL2        0.1495
     46 H           0.3417    1.0532   -1.1559 H       5  ASP5        0.1495
     47 H           1.4440   -2.8112    1.1044 H       3  LEU3        0.1495
     48 H          -1.2858   -0.4024   -1.1492 H       4  TRP4        0.1495
     49 HE1        -5.9664   -1.7847    0.3347 H       4  TRP4        0.1653
     50 HA          5.3893    1.2109    0.1548 H       1  PRO1        0.0597
     51 HB1         5.8567    2.6002    1.9947 H       1  PRO1        0.0288
     52 HB2         5.8557    1.0574    2.8659 H       1  PRO1        0.0288
     53 HG1         4.2011    3.0002    3.7150 H       1  PRO1        0.0281
     54 HG2         3.5365    1.3670    3.5347 H       1  PRO1        0.0281
     55 HD1         2.0269    2.5270    2.1199 H       1  PRO1        0.0465
     56 HD2         3.2624    3.7085    1.6073 H       1  PRO1        0.0465
     57 HA          3.6076   -2.8586    0.9618 H       2  VAL2        0.0597
     58 HA          1.5499    3.5438   -0.0304 H       5  ASP5        0.0598
     59 HB          4.7254   -2.9894   -1.9001 H       2  VAL2        0.0318
     60 HA         -0.1682   -2.2929   -1.3419 H       3  LEU3        0.0594
     61 HB1         1.3588    2.3727   -2.8777 H       5  ASP5        0.0348
     62 HB2         2.4667    3.6782   -2.4537 H       5  ASP5        0.0348
     63 HA         -1.8495    0.6788    1.5510 H       4  TRP4        0.0598
     64 HB1        -2.0827   -3.4029   -0.1798 H       3  LEU3        0.0290
     65 HB2        -1.0290   -3.8983    1.1314 H       3  LEU3        0.0290
     66 HG          0.2814   -5.3479   -0.4103 H       3  LEU3        0.0296
     67 HB1        -2.4846    1.8179   -1.2347 H       4  TRP4        0.0337
     68 HB2        -3.0542    2.4899    0.2886 H       4  TRP4        0.0337
     69 HG11        3.9164   -5.2413    0.0210 H       2  VAL2        0.0233
     70 HG12        4.7645   -5.4629   -1.5188 H       2  VAL2        0.0233
     71 HG13        3.1183   -4.8335   -1.5083 H       2  VAL2        0.0233
     72 HG21        5.9962   -3.8034    0.7699 H       2  VAL2        0.0233
     73 HG22        6.5027   -2.4487   -0.2563 H       2  VAL2        0.0233
     74 HG23        6.6833   -4.1061   -0.8346 H       2  VAL2        0.0233
     75 HD11       -2.7368   -5.8538   -0.5103 H       3  LEU3        0.0232
     76 HD12       -1.6573   -6.2662    0.8344 H       3  LEU3        0.0232
     77 HD13       -1.4644   -7.0681   -0.7298 H       3  LEU3        0.0232
     78 HD21       -1.7395   -4.4629   -2.5378 H       3  LEU3        0.0232
     79 HD22       -0.6289   -5.8338   -2.7032 H       3  LEU3        0.0232
     80 HD23        0.0145   -4.2006   -2.5680 H       3  LEU3        0.0232
     81 HD1        -3.7399   -1.0115    1.1554 H       4  TRP4        0.0810
     82 HE3        -4.7809    2.7652   -2.2469 H       4  TRP4        0.0624
     83 HZ2        -7.9786   -0.9969   -1.4640 H       4  TRP4        0.0638
     84 HZ3        -6.9405    2.6780   -3.4602 H       4  TRP4        0.0618
     85 HH2        -8.5243    0.8166   -3.0811 H       4  TRP4        0.0618
@<TRIPOS>BOND
     1     1    18    2
     2     2    19    2
     3     3    24    2
     4     4    29    2
     5     5    31    2
     6     6    35   ar
     7     7    35   ar
     8     8    14    1
     9     8    17    1
    10     8    19   am
    11     9    18   am
    12     9    20    1
    13    10    21    1
    14    10    29   am
    15    11    23    1
    16    11    24   am
    17    12    26    1
    18    12    31   am
    19    13    39   ar
    20    13    40   ar
    21    14    15    1
    22    14    18    1
    23    15    16    1
    24    16    17    1
    25    19    21    1
    26    20    22    1
    27    20    24    1
    28    21    25    1
    29    22    32    1
    30    22    33    1
    31    23    27    1
    32    23    31    1
    33    25    35    1
    34    26    29    1
    35    26    30    1
    36    27    28    1
    37    28    36    1
    38    28    37    1
    39    30    34    1
    40    34    38   ar
    41    34    39   ar
    42    38    40   ar
    43    38    41   ar
    44    40    42   ar
    45    41    43   ar
    46    42    44   ar
    47    43    44   ar
    48     9    45    1
    49    10    46    1
    50    11    47    1
    51    12    48    1
    52    13    49    1
    53    14    50    1
    54    15    51    1
    55    15    52    1
    56    16    53    1
    57    16    54    1
    58    17    55    1
    59    17    56    1
    60    20    57    1
    61    21    58    1
    62    22    59    1
    63    23    60    1
    64    25    61    1
    65    25    62    1
    66    26    63    1
    67    27    64    1
    68    27    65    1
    69    28    66    1
    70    30    67    1
    71    30    68    1
    72    32    69    1
    73    32    70    1
    74    32    71    1
    75    33    72    1
    76    33    73    1
    77    33    74    1
    78    36    75    1
    79    36    76    1
    80    36    77    1
    81    37    78    1
    82    37    79    1
    83    37    80    1
    84    39    81    1
    85    41    82    1
    86    42    83    1
    87    43    84    1
    88    44    85    1
@<TRIPOS>MOLECULE
16219006
 85 88 0 0 0
SMALL
GASTEIGER

@<TRIPOS>ATOM
      1 O           4.1578   -1.0448    2.2206 O.2     1  PRO1       -0.2738
      2 O           2.9129    0.8579   -1.3015 O.2     5  ASP5       -0.2735
      3 O           2.1036   -2.4532   -1.9572 O.2     2  VAL2       -0.2738
      4 O          -0.3976    2.9949    1.2880 O.2     4  TRP4       -0.2738
      5 O          -0.3112   -1.1112    1.7503 O.2     3  LEU3       -0.2738
      6 OD1         2.5756    5.6436   -1.6316 O.co2   5  ASP5       -0.5497
      7 OD2         4.0678    3.9508   -1.9575 O.co2   5  ASP5       -0.5497
      8 N           3.4036    1.7774    0.7149 N.am    1  PRO1       -0.2884
      9 N           4.1155   -1.2213   -0.0626 N.am    2  VAL2       -0.3022
     10 N           0.3838    2.0441   -0.6547 N.am    5  ASP5       -0.3021
     11 N           1.2429   -2.7135    0.1465 N.am    3  LEU3       -0.3025
     12 N          -1.1478   -0.2013   -0.1799 N.am    4  TRP4       -0.3022
     13 NE1        -5.6334   -0.4321   -1.3163 N.ar    4  TRP4       -0.3604
     14 CA          4.6126    0.9758    0.8993 C.3     1  PRO1        0.1023
     15 CB          5.3023    1.6025    2.1166 C.3     1  PRO1       -0.0243
     16 CG          4.1617    2.2665    2.8782 C.3     1  PRO1       -0.0350
     17 CD          3.2651    2.7733    1.7623 C.3     1  PRO1        0.0156
     18 C           4.2804   -0.5203    1.1158 C.2     1  PRO1        0.2342
     19 C           2.7431    1.7848   -0.4951 C.2     5  ASP5        0.2369
     20 CA          3.6792   -2.6126   -0.0994 C.3     2  VAL2        0.1017
     21 CA          1.6257    2.8352   -0.7231 C.3     5  ASP5        0.1047
     22 CB          4.6573   -3.4927   -0.9072 C.3     2  VAL2       -0.0197
     23 CA         -0.1332   -2.4420   -0.2603 C.3     3  LEU3        0.0996
     24 C           2.2822   -2.6016   -0.7496 C.2     2  VAL2        0.2342
     25 CB          1.7612    3.4858   -2.0887 C.3     5  ASP5        0.0138
     26 CA         -1.5640    1.0426    0.4742 C.3     4  TRP4        0.1034
     27 CB         -1.0267   -3.6419    0.0746 C.3     3  LEU3       -0.0236
     28 CG         -2.5046   -3.4882   -0.3325 C.3     3  LEU3       -0.0446
     29 C          -0.4383    2.0923    0.4525 C.2     4  TRP4        0.2343
     30 CB         -2.8201    1.6511   -0.1630 C.3     4  TRP4        0.0013
     31 C          -0.5356   -1.1979    0.5433 C.2     3  LEU3        0.2340
     32 CG1         4.1527   -4.9394   -0.9946 C.3     2  VAL2       -0.0605
     33 CG2         6.0534   -3.4914   -0.2741 C.3     2  VAL2       -0.0605
     34 CG         -3.9681    0.6937   -0.3449 C.ar    4  TRP4       -0.0201
     35 CG          2.9147    4.4551   -1.8814 C.2     5  ASP5        0.0440
     36 CD1        -2.6889   -3.2932   -1.8375 C.3     3  LEU3       -0.0626
     37 CD2        -3.3020   -4.7105    0.1299 C.3     3  LEU3       -0.0626
     38 CD2        -4.5462   -0.2035    0.6169 C.ar    4  TRP4        0.0029
     39 CD1        -4.6773    0.5230   -1.5199 C.ar    4  TRP4        0.0060
     40 CE2        -5.5652   -0.9075   -0.0291 C.ar    4  TRP4        0.0467
     41 CE3        -4.2905   -0.5079    1.9714 C.ar    4  TRP4       -0.0523
     42 CZ2        -6.3238   -1.9022    0.6015 C.ar    4  TRP4       -0.0378
     43 CZ3        -5.0298   -1.5087    2.6134 C.ar    4  TRP4       -0.0611
     44 CH2        -6.0308   -2.1962    1.9353 C.ar    4  TRP4       -0.0598
     45 H           3.8905   -0.6405   -0.8797 H       2  VAL2        0.1495
     46 H           0.4212    1.1710   -1.1662 H       5  ASP5        0.1495
     47 H           1.4541   -2.5296    1.1263 H       3  LEU3        0.1495
     48 H          -1.2719   -0.2939   -1.1801 H       4  TRP4        0.1495
     49 HE1        -6.2939   -0.7523   -2.0101 H       4  TRP4        0.1653
     50 HA          5.2573    1.0636    0.0158 H       1  PRO1        0.0597
     51 HB1         6.0061    2.3748    1.7815 H       1  PRO1        0.0288
     52 HB2         5.8568    0.8892    2.7333 H       1  PRO1        0.0288
     53 HG1         4.4992    3.0662    3.5431 H       1  PRO1        0.0281
     54 HG2         3.6301    1.5201    3.4804 H       1  PRO1        0.0281
     55 HD1         2.2242    2.8655    2.0810 H       1  PRO1        0.0465
     56 HD2         3.6157    3.7357    1.3733 H       1  PRO1        0.0465
     57 HA          3.5996   -3.0044    0.9215 H       2  VAL2        0.0597
     58 HA          1.6111    3.5913    0.0648 H       5  ASP5        0.0598
     59 HB          4.7488   -3.1010   -1.9287 H       2  VAL2        0.0318
     60 HA         -0.1632   -2.2214   -1.3307 H       3  LEU3        0.0594
     61 HB1         0.8499    4.0256   -2.3690 H       5  ASP5        0.0348
     62 HB2         1.9911    2.7721   -2.8867 H       5  ASP5        0.0348
     63 HA         -1.7443    0.8255    1.5316 H       4  TRP4        0.0598
     64 HB1        -0.9795   -3.8344    1.1555 H       3  LEU3        0.0290
     65 HB2        -0.6118   -4.5373   -0.4083 H       3  LEU3        0.0290
     66 HG         -2.9189   -2.6152    0.1792 H       3  LEU3        0.0296
     67 HB1        -2.5585    2.0708   -1.1445 H       4  TRP4        0.0337
     68 HB2        -3.1648    2.4989    0.4430 H       4  TRP4        0.0337
     69 HG11        4.0059   -5.3683    0.0027 H       2  VAL2        0.0233
     70 HG12        4.8691   -5.5699   -1.5319 H       2  VAL2        0.0233
     71 HG13        3.2011   -5.0010   -1.5320 H       2  VAL2        0.0233
     72 HG21        6.0187   -3.8485    0.7610 H       2  VAL2        0.0233
     73 HG22        6.4900   -2.4878   -0.2735 H       2  VAL2        0.0233
     74 HG23        6.7331   -4.1438   -0.8329 H       2  VAL2        0.0233
     75 HD11       -2.2272   -4.1096   -2.4028 H       3  LEU3        0.0232
     76 HD12       -2.2492   -2.3512   -2.1770 H       3  LEU3        0.0232
     77 HD13       -3.7527   -3.2621   -2.0972 H       3  LEU3        0.0232
     78 HD21       -2.9387   -5.6265   -0.3483 H       3  LEU3        0.0232
     79 HD22       -4.3635   -4.5989   -0.1156 H       3  LEU3        0.0232
     80 HD23       -3.2240   -4.8388    1.2146 H       3  LEU3        0.0232
     81 HD1        -4.5796    1.0065   -2.4832 H       4  TRP4        0.0810
     82 HE3        -3.5131    0.0097    2.5249 H       4  TRP4        0.0624
     83 HZ2        -7.1066   -2.4373    0.0749 H       4  TRP4        0.0638
     84 HZ3        -4.8103   -1.7502    3.6505 H       4  TRP4        0.0618
     85 HH2        -6.5919   -2.9721    2.4500 H       4  TRP4        0.0618
@<TRIPOS>BOND
     1     1    18    2
     2     2    19    2
     3     3    24    2
     4     4    29    2
     5     5    31    2
     6     6    35   ar
     7     7    35   ar
     8     8    14    1
     9     8    17    1
    10     8    19   am
    11     9    18   am
    12     9    20    1
    13    10    21    1
    14    10    29   am
    15    11    23    1
    16    11    24   am
    17    12    26    1
    18    12    31   am
    19    13    39   ar
    20    13    40   ar
    21    14    15    1
    22    14    18    1
    23    15    16    1
    24    16    17    1
    25    19    21    1
    26    20    22    1
    27    20    24    1
    28    21    25    1
    29    22    32    1
    30    22    33    1
    31    23    27    1
    32    23    31    1
    33    25    35    1
    34    26    29    1
    35    26    30    1
    36    27    28    1
    37    28    36    1
    38    28    37    1
    39    30    34    1
    40    34    38   ar
    41    34    39   ar
    42    38    40   ar
    43    38    41   ar
    44    40    42   ar
    45    41    43   ar
    46    42    44   ar
    47    43    44   ar
    48     9    45    1
    49    10    46    1
    50    11    47    1
    51    12    48    1
    52    13    49    1
    53    14    50    1
    54    15    51    1
    55    15    52    1
    56    16    53    1
    57    16    54    1
    58    17    55    1
    59    17    56    1
    60    20    57    1
    61    21    58    1
    62    22    59    1
    63    23    60    1
    64    25    61    1
    65    25    62    1
    66    26    63    1
    67    27    64    1
    68    27    65    1
    69    28    66    1
    70    30    67    1
    71    30    68    1
    72    32    69    1
    73    32    70    1
    74    32    71    1
    75    33    72    1
    76    33    73    1
    77    33    74    1
    78    36    75    1
    79    36    76    1
    80    36    77    1
    81    37    78    1
    82    37    79    1
    83    37    80    1
    84    39    81    1
    85    41    82    1
    86    42    83    1
    87    43    84    1
    88    44    85    1
@<TRIPOS>MOLECULE
16219006
 85 88 0 0 0
SMALL
GASTEIGER

@<TRIPOS>ATOM
      1 O           4.1091   -0.9340    2.2259 O.2     1  PRO1       -0.2738
      2 O           3.3174    1.2434   -1.4275 O.2     5  ASP5       -0.2735
      3 O           2.0085   -1.7668   -1.7645 O.2     2  VAL2       -0.2738
      4 O          -0.3062    2.7359    1.4969 O.2     4  TRP4       -0.2738
      5 O          -0.2716   -1.2156    1.7426 O.2     3  LEU3       -0.2738
      6 OD1         0.6349    5.1657   -3.3117 O.co2   5  ASP5       -0.5497
      7 OD2        -0.6294    4.2654   -1.6462 O.co2   5  ASP5       -0.5497
      8 N           3.4713    1.8905    0.7298 N.am    1  PRO1       -0.2884
      9 N           4.2015   -1.1060   -0.0573 N.am    2  VAL2       -0.3022
     10 N           0.5097    1.8373   -0.4618 N.am    5  ASP5       -0.3021
     11 N           1.2122   -2.8733    0.0739 N.am    3  LEU3       -0.3025
     12 N          -1.1580   -0.3089   -0.1712 N.am    4  TRP4       -0.3022
     13 NE1        -5.6763   -0.5473    0.0577 N.ar    4  TRP4       -0.3604
     14 CA          4.6707    1.0849    0.9550 C.3     1  PRO1        0.1023
     15 CB          5.2817    1.6811    2.2237 C.3     1  PRO1       -0.0243
     16 CG          4.0766    2.2223    2.9845 C.3     1  PRO1       -0.0350
     17 CD          3.1568    2.7202    1.8800 C.3     1  PRO1        0.0156
     18 C           4.3080   -0.4094    1.1327 C.2     1  PRO1        0.2342
     19 C           2.8794    1.9588   -0.5141 C.2     5  ASP5        0.2369
     20 CA          3.6371   -2.4544   -0.0924 C.3     2  VAL2        0.1017
     21 CA          1.5852    2.7976   -0.6743 C.3     5  ASP5        0.1047
     22 CB          4.5348   -3.4497   -0.8629 C.3     2  VAL2       -0.0197
     23 CA         -0.1706   -2.5498   -0.2732 C.3     3  LEU3        0.0996
     24 C           2.2239   -2.3237   -0.6924 C.2     2  VAL2        0.2342
     25 CB          1.5399    3.3933   -2.0759 C.3     5  ASP5        0.0138
     26 CA         -1.5747    0.9474    0.4675 C.3     4  TRP4        0.1034
     27 CB         -1.1082   -3.7046    0.0930 C.3     3  LEU3       -0.0236
     28 CG         -2.5794   -3.4787   -0.3113 C.3     3  LEU3       -0.0446
     29 C          -0.3813    1.9120    0.5863 C.2     4  TRP4        0.2343
     30 CB         -2.7108    1.6219   -0.3201 C.3     4  TRP4        0.0013
     31 C          -0.5266   -1.2967    0.5418 C.2     3  LEU3        0.2340
     32 CG1         4.7906   -3.0742   -2.3246 C.3     2  VAL2       -0.0605
     33 CG2         3.9768   -4.8760   -0.7849 C.3     2  VAL2       -0.0605
     34 CG         -3.9211    0.7305   -0.4553 C.ar    4  TRP4       -0.0201
     35 CG          0.4068    4.3731   -2.3531 C.2     5  ASP5        0.0440
     36 CD1        -2.7486   -3.3175   -1.8231 C.3     3  LEU3       -0.0626
     37 CD2        -3.4387   -4.6435    0.1817 C.3     3  LEU3       -0.0626
     38 CD2        -4.4613    0.1781   -1.6633 C.ar    4  TRP4        0.0029
     39 CD1        -4.7114    0.2682    0.5802 C.ar    4  TRP4        0.0060
     40 CE2        -5.5471   -0.6248   -1.3089 C.ar    4  TRP4        0.0467
     41 CE3        -4.1238    0.2780   -3.0288 C.ar    4  TRP4       -0.0523
     42 CZ2        -6.3054   -1.3380   -2.2461 C.ar    4  TRP4       -0.0378
     43 CZ3        -4.8723   -0.4267   -3.9805 C.ar    4  TRP4       -0.0611
     44 CH2        -5.9453   -1.2245   -3.5921 C.ar    4  TRP4       -0.0598
     45 H           4.0162   -0.5209   -0.8808 H       2  VAL2        0.1495
     46 H           0.4026    1.1064   -1.1503 H       5  ASP5        0.1495
     47 H           1.3938   -2.9155    1.0698 H       3  LEU3        0.1495
     48 H          -1.2725   -0.3914   -1.1740 H       4  TRP4        0.1495
     49 HE1        -6.3841   -1.0269    0.5940 H       4  TRP4        0.1653
     50 HA          5.3633    1.1793    0.1103 H       1  PRO1        0.0597
     51 HB1         5.9440    2.5135    1.9556 H       1  PRO1        0.0288
     52 HB2         5.8614    0.9650    2.8142 H       1  PRO1        0.0288
     53 HG1         4.3435    3.0100    3.6945 H       1  PRO1        0.0281
     54 HG2         3.5900    1.4142    3.5427 H       1  PRO1        0.0281
     55 HD1         2.1058    2.6318    2.1557 H       1  PRO1        0.0465
     56 HD2         3.3773    3.7608    1.6184 H       1  PRO1        0.0465
     57 HA          3.5442   -2.8221    0.9355 H       2  VAL2        0.0597
     58 HA          1.5384    3.5971    0.0694 H       5  ASP5        0.0598
     59 HB          5.5123   -3.4574   -0.3624 H       2  VAL2        0.0318
     60 HA         -0.2281   -2.3352   -1.3443 H       3  LEU3        0.0594
     61 HB1         1.4720    2.6021   -2.8338 H       5  ASP5        0.0348
     62 HB2         2.4834    3.9247   -2.2600 H       5  ASP5        0.0348
     63 HA         -1.8996    0.7095    1.4882 H       4  TRP4        0.0598
     64 HB1        -1.0601   -3.8814    1.1762 H       3  LEU3        0.0290
     65 HB2        -0.7395   -4.6253   -0.3799 H       3  LEU3        0.0290
     66 HG         -2.9513   -2.5704    0.1765 H       3  LEU3        0.0296
     67 HB1        -2.3543    1.9092   -1.3169 H       4  TRP4        0.0337
     68 HB2        -3.0096    2.5528    0.1783 H       4  TRP4        0.0337
     69 HG11        3.8784   -3.1258   -2.9261 H       2  VAL2        0.0233
     70 HG12        5.5140   -3.7654   -2.7722 H       2  VAL2        0.0233
     71 HG13        5.2069   -2.0659   -2.4114 H       2  VAL2        0.0233
     72 HG21        3.0175   -4.9643   -1.3055 H       2  VAL2        0.0233
     73 HG22        3.8299   -5.1824    0.2558 H       2  VAL2        0.0233
     74 HG23        4.6706   -5.5884   -1.2453 H       2  VAL2        0.0233
     75 HD11       -2.2968   -4.1550   -2.3649 H       3  LEU3        0.0232
     76 HD12       -2.2879   -2.3928   -2.1821 H       3  LEU3        0.0232
     77 HD13       -3.8081   -3.2757   -2.0936 H       3  LEU3        0.0232
     78 HD21       -3.1385   -5.5860   -0.2879 H       3  LEU3        0.0232
     79 HD22       -4.4954   -4.4696   -0.0493 H       3  LEU3        0.0232
     80 HD23       -3.3510   -4.7597    1.2672 H       3  LEU3        0.0232
     81 HD1        -4.6535    0.4422    1.6465 H       4  TRP4        0.0810
     82 HE3        -3.2965    0.9078   -3.3481 H       4  TRP4        0.0624
     83 HZ2        -7.1438   -1.9565   -1.9452 H       4  TRP4        0.0638
     84 HZ3        -4.6122   -0.3410   -5.0328 H       4  TRP4        0.0618
     85 HH2        -6.5148   -1.7623   -4.3460 H       4  TRP4        0.0618
@<TRIPOS>BOND
     1     1    18    2
     2     2    19    2
     3     3    24    2
     4     4    29    2
     5     5    31    2
     6     6    35   ar
     7     7    35   ar
     8     8    14    1
     9     8    17    1
    10     8    19   am
    11     9    18   am
    12     9    20    1
    13    10    21    1
    14    10    29   am
    15    11    23    1
    16    11    24   am
    17    12    26    1
    18    12    31   am
    19    13    39   ar
    20    13    40   ar
    21    14    15    1
    22    14    18    1
    23    15    16    1
    24    16    17    1
    25    19    21    1
    26    20    22    1
    27    20    24    1
    28    21    25    1
    29    22    32    1
    30    22    33    1
    31    23    27    1
    32    23    31    1
    33    25    35    1
    34    26    29    1
    35    26    30    1
    36    27    28    1
    37    28    36    1
    38    28    37    1
    39    30    34    1
    40    34    38   ar
    41    34    39   ar
    42    38    40   ar
    43    38    41   ar
    44    40    42   ar
    45    41    43   ar
    46    42    44   ar
    47    43    44   ar
    48     9    45    1
    49    10    46    1
    50    11    47    1
    51    12    48    1
    52    13    49    1
    53    14    50    1
    54    15    51    1
    55    15    52    1
    56    16    53    1
    57    16    54    1
    58    17    55    1
    59    17    56    1
    60    20    57    1
    61    21    58    1
    62    22    59    1
    63    23    60    1
    64    25    61    1
    65    25    62    1
    66    26    63    1
    67    27    64    1
    68    27    65    1
    69    28    66    1
    70    30    67    1
    71    30    68    1
    72    32    69    1
    73    32    70    1
    74    32    71    1
    75    33    72    1
    76    33    73    1
    77    33    74    1
    78    36    75    1
    79    36    76    1
    80    36    77    1
    81    37    78    1
    82    37    79    1
    83    37    80    1
    84    39    81    1
    85    41    82    1
    86    42    83    1
    87    43    84    1
    88    44    85    1
@<TRIPOS>MOLECULE
16219006
 85 88 0 0 0
SMALL
GASTEIGER

@<TRIPOS>ATOM
      1 O           4.1557   -1.0452    2.2986 O.2     1  PRO1       -0.2738
      2 O           3.0944    0.9877   -1.2973 O.2     5  ASP5       -0.2735
      3 O           2.0610   -2.3097   -1.8452 O.2     2  VAL2       -0.2738
      4 O          -0.6167    3.0015    1.1537 O.2     4  TRP4       -0.2738
      5 O          -0.5987   -1.1388    1.7964 O.2     3  LEU3       -0.2738
      6 OD1         3.6031    4.5831   -1.0198 O.co2   5  ASP5       -0.5497
      7 OD2         3.2314    4.8087   -3.2572 O.co2   5  ASP5       -0.5497
      8 N           3.4064    1.7737    0.8056 N.am    1  PRO1       -0.2884
      9 N           4.1265   -1.1882    0.0147 N.am    2  VAL2       -0.3022
     10 N           0.4416    1.9713   -0.6038 N.am    5  ASP5       -0.3021
     11 N           1.2327   -2.7028    0.2505 N.am    3  LEU3       -0.3025
     12 N          -1.1773   -0.2823   -0.2551 N.am    4  TRP4       -0.3022
     13 NE1        -2.0377    1.6870   -4.1549 N.ar    4  TRP4       -0.3604
     14 CA          4.6238    0.9928    1.0120 C.3     1  PRO1        0.1023
     15 CB          5.2683    1.6123    2.2549 C.3     1  PRO1       -0.0243
     16 CG          4.0897    2.2193    3.0066 C.3     1  PRO1       -0.0350
     17 CD          3.1988    2.7244    1.8839 C.3     1  PRO1        0.0156
     18 C           4.2888   -0.5039    1.2026 C.2     1  PRO1        0.2342
     19 C           2.8134    1.8381   -0.4391 C.2     5  ASP5        0.2369
     20 CA          3.6690   -2.5713   -0.0330 C.3     2  VAL2        0.1017
     21 CA          1.6383    2.8258   -0.6493 C.3     5  ASP5        0.1047
     22 CB          4.6106   -3.4536   -0.8819 C.3     2  VAL2       -0.0197
     23 CA         -0.1468   -2.4979   -0.1616 C.3     3  LEU3        0.0996
     24 C           2.2601   -2.5255   -0.6503 C.2     2  VAL2        0.2342
     25 CB          1.7342    3.5013   -2.0073 C.3     5  ASP5        0.0138
     26 CA         -1.6560    1.0054    0.2610 C.3     4  TRP4        0.1034
     27 CB         -1.0334   -3.6992    0.1881 C.3     3  LEU3       -0.0236
     28 CG         -0.6817   -4.9973   -0.5698 C.3     3  LEU3       -0.0446
     29 C          -0.5390    2.0694    0.3543 C.2     4  TRP4        0.2343
     30 CB         -2.8530    1.5217   -0.5550 C.3     4  TRP4        0.0013
     31 C          -0.6536   -1.2470    0.5739 C.2     3  LEU3        0.2340
     32 CG1         4.0811   -4.8908   -0.9811 C.3     2  VAL2       -0.0605
     33 CG2         6.0234   -3.4844   -0.2881 C.3     2  VAL2       -0.0605
     34 CG         -2.5538    1.8540   -1.9905 C.ar    4  TRP4       -0.0201
     35 CG          2.9770    4.3785   -2.0965 C.2     5  ASP5        0.0440
     36 CD1        -1.6136   -6.1254   -0.1186 C.3     3  LEU3       -0.0626
     37 CD2        -0.7721   -4.8396   -2.0892 C.3     3  LEU3       -0.0626
     38 CD2        -2.4402    3.1715   -2.5451 C.ar    4  TRP4        0.0029
     39 CD1        -2.3475    0.9667   -3.0316 C.ar    4  TRP4        0.0060
     40 CE2        -2.1213    3.0329   -3.8952 C.ar    4  TRP4        0.0467
     41 CE3        -2.5655    4.4731   -2.0170 C.ar    4  TRP4       -0.0523
     42 CZ2        -1.9184    4.1272   -4.7439 C.ar    4  TRP4       -0.0378
     43 CZ3        -2.3782    5.5789   -2.8539 C.ar    4  TRP4       -0.0611
     44 CH2        -2.0575    5.4055   -4.1973 C.ar    4  TRP4       -0.0598
     45 H           3.9263   -0.5980   -0.8023 H       2  VAL2        0.1495
     46 H           0.4695    1.1687   -1.2147 H       5  ASP5        0.1495
     47 H           1.4404   -2.5469    1.2349 H       3  LEU3        0.1495
     48 H          -0.9555   -0.3278   -1.2413 H       4  TRP4        0.1495
     49 HE1        -1.7864    1.2973   -5.0527 H       4  TRP4        0.1653
     50 HA          5.2922    1.0934    0.1479 H       1  PRO1        0.0597
     51 HB1         5.9521    2.4150    1.9508 H       1  PRO1        0.0288
     52 HB2         5.8344    0.9024    2.8648 H       1  PRO1        0.0288
     53 HG1         4.3882    3.0135    3.6964 H       1  PRO1        0.0281
     54 HG2         3.5716    1.4423    3.5807 H       1  PRO1        0.0281
     55 HD1         2.1457    2.7604    2.1742 H       1  PRO1        0.0465
     56 HD2         3.5182    3.7151    1.5450 H       1  PRO1        0.0465
     57 HA          3.6070   -2.9807    0.9821 H       2  VAL2        0.0597
     58 HA          1.5774    3.5718    0.1455 H       5  ASP5        0.0598
     59 HB          4.6807   -3.0462   -1.8990 H       2  VAL2        0.0318
     60 HA         -0.1979   -2.3076   -1.2376 H       3  LEU3        0.0594
     61 HB1         0.8538    4.1327   -2.1772 H       5  ASP5        0.0348
     62 HB2         1.7634    2.7614   -2.8171 H       5  ASP5        0.0348
     63 HA         -1.9944    0.8335    1.2910 H       4  TRP4        0.0598
     64 HB1        -2.0811   -3.4374   -0.0126 H       3  LEU3        0.0290
     65 HB2        -0.9717   -3.8940    1.2676 H       3  LEU3        0.0290
     66 HG          0.3444   -5.2914   -0.3167 H       3  LEU3        0.0296
     67 HB1        -3.2665    2.4075   -0.0573 H       4  TRP4        0.0337
     68 HB2        -3.6492    0.7653   -0.5400 H       4  TRP4        0.0337
     69 HG11        3.9550   -5.3358    0.0119 H       2  VAL2        0.0233
     70 HG12        4.7729   -5.5221   -1.5489 H       2  VAL2        0.0233
     71 HG13        3.1145   -4.9283   -1.4935 H       2  VAL2        0.0233
     72 HG21        6.0123   -3.8611    0.7406 H       2  VAL2        0.0233
     73 HG22        6.4743   -2.4872   -0.2810 H       2  VAL2        0.0233
     74 HG23        6.6778   -4.1354   -0.8780 H       2  VAL2        0.0233
     75 HD11       -2.6579   -5.8977   -0.3594 H       3  LEU3        0.0232
     76 HD12       -1.5403   -6.2835    0.9623 H       3  LEU3        0.0232
     77 HD13       -1.3514   -7.0676   -0.6118 H       3  LEU3        0.0232
     78 HD21       -1.7496   -4.4485   -2.3908 H       3  LEU3        0.0232
     79 HD22       -0.6237   -5.8023   -2.5904 H       3  LEU3        0.0232
     80 HD23       -0.0016   -4.1622   -2.4679 H       3  LEU3        0.0232
     81 HD1        -2.3666   -0.1137   -3.0704 H       4  TRP4        0.0810
     82 HE3        -2.7860    4.6254   -0.9646 H       4  TRP4        0.0624
     83 HZ2        -1.6408    3.9968   -5.7843 H       4  TRP4        0.0638
     84 HZ3        -2.4592    6.5815   -2.4424 H       4  TRP4        0.0618
     85 HH2        -1.8871    6.2766   -4.8250 H       4  TRP4        0.0618
@<TRIPOS>BOND
     1     1    18    2
     2     2    19    2
     3     3    24    2
     4     4    29    2
     5     5    31    2
     6     6    35   ar
     7     7    35   ar
     8     8    14    1
     9     8    17    1
    10     8    19   am
    11     9    18   am
    12     9    20    1
    13    10    21    1
    14    10    29   am
    15    11    23    1
    16    11    24   am
    17    12    26    1
    18    12    31   am
    19    13    39   ar
    20    13    40   ar
    21    14    15    1
    22    14    18    1
    23    15    16    1
    24    16    17    1
    25    19    21    1
    26    20    22    1
    27    20    24    1
    28    21    25    1
    29    22    32    1
    30    22    33    1
    31    23    27    1
    32    23    31    1
    33    25    35    1
    34    26    29    1
    35    26    30    1
    36    27    28    1
    37    28    36    1
    38    28    37    1
    39    30    34    1
    40    34    38   ar
    41    34    39   ar
    42    38    40   ar
    43    38    41   ar
    44    40    42   ar
    45    41    43   ar
    46    42    44   ar
    47    43    44   ar
    48     9    45    1
    49    10    46    1
    50    11    47    1
    51    12    48    1
    52    13    49    1
    53    14    50    1
    54    15    51    1
    55    15    52    1
    56    16    53    1
    57    16    54    1
    58    17    55    1
    59    17    56    1
    60    20    57    1
    61    21    58    1
    62    22    59    1
    63    23    60    1
    64    25    61    1
    65    25    62    1
    66    26    63    1
    67    27    64    1
    68    27    65    1
    69    28    66    1
    70    30    67    1
    71    30    68    1
    72    32    69    1
    73    32    70    1
    74    32    71    1
    75    33    72    1
    76    33    73    1
    77    33    74    1
    78    36    75    1
    79    36    76    1
    80    36    77    1
    81    37    78    1
    82    37    79    1
    83    37    80    1
    84    39    81    1
    85    41    82    1
    86    42    83    1
    87    43    84    1
    88    44    85    1
@<TRIPOS>MOLECULE
16219006
 85 88 0 0 0
SMALL
GASTEIGER

@<TRIPOS>ATOM
      1 O           4.4011   -1.0002    2.2242 O.2     1  PRO1       -0.2738
      2 O           3.3076    1.1358   -1.3921 O.2     5  ASP5       -0.2735
      3 O           1.8821   -1.6450   -1.6885 O.2     2  VAL2       -0.2738
      4 O          -0.1833    2.8287    1.3851 O.2     4  TRP4       -0.2738
      5 O          -0.5044   -1.2746    1.7915 O.2     3  LEU3       -0.2738
      6 OD1         3.6411    4.6665   -1.1595 O.co2   5  ASP5       -0.5497
      7 OD2         2.9621    5.1325   -3.2858 O.co2   5  ASP5       -0.5497
      8 N           3.5383    1.8489    0.7463 N.am    1  PRO1       -0.2884
      9 N           4.1490   -1.0671   -0.0514 N.am    2  VAL2       -0.3022
     10 N           0.5613    1.9840   -0.6128 N.am    5  ASP5       -0.3021
     11 N           1.1516   -2.8778    0.0870 N.am    3  LEU3       -0.3025
     12 N          -1.0813   -0.2693   -0.1930 N.am    4  TRP4       -0.3022
     13 NE1        -3.7167    5.0443    0.3916 N.ar    4  TRP4       -0.3604
     14 CA          4.7604    1.0760    0.9660 C.3     1  PRO1        0.1023
     15 CB          5.3760    1.6891    2.2246 C.3     1  PRO1       -0.0243
     16 CG          4.1750    2.2584    2.9702 C.3     1  PRO1       -0.0350
     17 CD          3.2934    2.7699    1.8433 C.3     1  PRO1        0.0156
     18 C           4.4257   -0.4226    1.1388 C.2     1  PRO1        0.2342
     19 C           2.9675    1.9357   -0.5082 C.2     5  ASP5        0.2369
     20 CA          3.5704   -2.4004   -0.0876 C.3     2  VAL2        0.1017
     21 CA          1.7433    2.8644   -0.7024 C.3     5  ASP5        0.1047
     22 CB          4.4227   -3.4078   -0.8907 C.3     2  VAL2       -0.0197
     23 CA         -0.2398   -2.5746   -0.2388 C.3     3  LEU3        0.0996
     24 C           2.1425   -2.2616   -0.6562 C.2     2  VAL2        0.2342
     25 CB          1.7688    3.5224   -2.0719 C.3     5  ASP5        0.0138
     26 CA         -1.4662    1.0140    0.4195 C.3     4  TRP4        0.1034
     27 CB         -1.1572   -3.7434    0.1388 C.3     3  LEU3       -0.0236
     28 CG         -2.6431   -3.5260   -0.2180 C.3     3  LEU3       -0.0446
     29 C          -0.2745    1.9945    0.4858 C.2     4  TRP4        0.2343
     30 CB         -2.6335    1.6159   -0.3778 C.3     4  TRP4        0.0013
     31 C          -0.6126   -1.3162    0.5682 C.2     3  LEU3        0.2340
     32 CG1         5.7338   -3.7101   -0.1547 C.3     2  VAL2       -0.0605
     33 CG2         4.7368   -2.9603   -2.3224 C.3     2  VAL2       -0.0605
     34 CG         -3.1996    2.8860    0.1755 C.ar    4  TRP4       -0.0201
     35 CG          2.9067    4.5306   -2.1761 C.2     5  ASP5        0.0440
     36 CD1        -2.8647   -3.3114   -1.7167 C.3     3  LEU3       -0.0626
     37 CD2        -3.4694   -4.7238    0.2573 C.3     3  LEU3       -0.0626
     38 CD2        -3.9006    3.0713    1.4124 C.ar    4  TRP4        0.0029
     39 CD1        -3.1250    4.1257   -0.4300 C.ar    4  TRP4        0.0060
     40 CE2        -4.2089    4.4289    1.5181 C.ar    4  TRP4        0.0467
     41 CE3        -4.2861    2.2154    2.4655 C.ar    4  TRP4       -0.0523
     42 CZ2        -4.8790    4.9730    2.6203 C.ar    4  TRP4       -0.0378
     43 CZ3        -4.9510    2.7447    3.5788 C.ar    4  TRP4       -0.0611
     44 CH2        -5.2426    4.1041    3.6524 C.ar    4  TRP4       -0.0598
     45 H           3.9302   -0.4483   -0.8415 H       2  VAL2        0.1495
     46 H           0.6184    1.1470   -1.1755 H       5  ASP5        0.1495
     47 H           1.3494   -2.9901    1.0775 H       3  LEU3        0.1495
     48 H          -0.9055   -0.2871   -1.1905 H       4  TRP4        0.1495
     49 HE1        -3.7657    6.0366    0.2102 H       4  TRP4        0.1653
     50 HA          5.4416    1.1832    0.1132 H       1  PRO1        0.0597
     51 HB1         6.0459    2.5121    1.9427 H       1  PRO1        0.0288
     52 HB2         5.9498    0.9835    2.8333 H       1  PRO1        0.0288
     53 HG1         4.4454    3.0434    3.6818 H       1  PRO1        0.0281
     54 HG2         3.6617    1.4598    3.5186 H       1  PRO1        0.0281
     55 HD1         2.2393    2.7774    2.1236 H       1  PRO1        0.0465
     56 HD2         3.5947    3.7745    1.5283 H       1  PRO1        0.0465
     57 HA          3.4821   -2.7769    0.9382 H       2  VAL2        0.0597
     58 HA          1.6867    3.6269    0.0776 H       5  ASP5        0.0598
     59 HB          3.8604   -4.3485   -0.9585 H       2  VAL2        0.0318
     60 HA         -0.3153   -2.3762   -1.3116 H       3  LEU3        0.0594
     61 HB1         0.8240    4.0517   -2.2508 H       5  ASP5        0.0348
     62 HB2         1.8808    2.7805   -2.8722 H       5  ASP5        0.0348
     63 HA         -1.7697    0.8155    1.4538 H       4  TRP4        0.0598
     64 HB1        -1.0763   -3.9359    1.2176 H       3  LEU3        0.0290
     65 HB2        -0.7942   -4.6532   -0.3581 H       3  LEU3        0.0290
     66 HG         -3.0140   -2.6402    0.3123 H       3  LEU3        0.0296
     67 HB1        -3.4467    0.8785   -0.4351 H       4  TRP4        0.0337
     68 HB2        -2.3182    1.7865   -1.4168 H       4  TRP4        0.0337
     69 HG11        6.3724   -2.8225   -0.0878 H       2  VAL2        0.0233
     70 HG12        6.3004   -4.4903   -0.6748 H       2  VAL2        0.0233
     71 HG13        5.5387   -4.0658    0.8627 H       2  VAL2        0.0233
     72 HG21        5.2879   -2.0148   -2.3414 H       2  VAL2        0.0233
     73 HG22        3.8243   -2.8392   -2.9120 H       2  VAL2        0.0233
     74 HG23        5.3520   -3.7112   -2.8315 H       2  VAL2        0.0233
     75 HD11       -2.4343   -4.1290   -2.3032 H       3  LEU3        0.0232
     76 HD12       -2.4156   -2.3730   -2.0577 H       3  LEU3        0.0232
     77 HD13       -3.9340   -3.2545   -1.9478 H       3  LEU3        0.0232
     78 HD21       -3.1581   -5.6453   -0.2460 H       3  LEU3        0.0232
     79 HD22       -4.5333   -4.5673    0.0515 H       3  LEU3        0.0232
     80 HD23       -3.3569   -4.8695    1.3365 H       3  LEU3        0.0232
     81 HD1        -2.6673    4.4359   -1.3608 H       4  TRP4        0.0810
     82 HE3        -4.0524    1.1561    2.4294 H       4  TRP4        0.0624
     83 HZ2        -5.0942    6.0348    2.6837 H       4  TRP4        0.0638
     84 HZ3        -5.2291    2.0870    4.3976 H       4  TRP4        0.0618
     85 HH2        -5.7492    4.4991    4.5295 H       4  TRP4        0.0618
@<TRIPOS>BOND
     1     1    18    2
     2     2    19    2
     3     3    24    2
     4     4    29    2
     5     5    31    2
     6     6    35   ar
     7     7    35   ar
     8     8    14    1
     9     8    17    1
    10     8    19   am
    11     9    18   am
    12     9    20    1
    13    10    21    1
    14    10    29   am
    15    11    23    1
    16    11    24   am
    17    12    26    1
    18    12    31   am
    19    13    39   ar
    20    13    40   ar
    21    14    15    1
    22    14    18    1
    23    15    16    1
    24    16    17    1
    25    19    21    1
    26    20    22    1
    27    20    24    1
    28    21    25    1
    29    22    32    1
    30    22    33    1
    31    23    27    1
    32    23    31    1
    33    25    35    1
    34    26    29    1
    35    26    30    1
    36    27    28    1
    37    28    36    1
    38    28    37    1
    39    30    34    1
    40    34    38   ar
    41    34    39   ar
    42    38    40   ar
    43    38    41   ar
    44    40    42   ar
    45    41    43   ar
    46    42    44   ar
    47    43    44   ar
    48     9    45    1
    49    10    46    1
    50    11    47    1
    51    12    48    1
    52    13    49    1
    53    14    50    1
    54    15    51    1
    55    15    52    1
    56    16    53    1
    57    16    54    1
    58    17    55    1
    59    17    56    1
    60    20    57    1
    61    21    58    1
    62    22    59    1
    63    23    60    1
    64    25    61    1
    65    25    62    1
    66    26    63    1
    67    27    64    1
    68    27    65    1
    69    28    66    1
    70    30    67    1
    71    30    68    1
    72    32    69    1
    73    32    70    1
    74    32    71    1
    75    33    72    1
    76    33    73    1
    77    33    74    1
    78    36    75    1
    79    36    76    1
    80    36    77    1
    81    37    78    1
    82    37    79    1
    83    37    80    1
    84    39    81    1
    85    41    82    1
    86    42    83    1
    87    43    84    1
    88    44    85    1
@<TRIPOS>MOLECULE
16219006
 85 88 0 0 0
SMALL
GASTEIGER

@<TRIPOS>ATOM
      1 O           4.2345   -1.0782    2.2496 O.2     1  PRO1       -0.2738
      2 O           3.1078    0.9791   -1.3433 O.2     5  ASP5       -0.2735
      3 O           2.1200   -2.4392   -1.9213 O.2     2  VAL2       -0.2738
      4 O          -0.4976    2.9678    1.2261 O.2     4  TRP4       -0.2738
      5 O          -0.1578   -0.9930    1.7335 O.2     3  LEU3       -0.2738
      6 OD1         2.9444    5.0041   -3.2952 O.co2   5  ASP5       -0.5497
      7 OD2         3.5868    4.5276   -1.1597 O.co2   5  ASP5       -0.5497
      8 N           3.3864    1.7626    0.7665 N.am    1  PRO1       -0.2884
      9 N           4.1322   -1.1731   -0.0337 N.am    2  VAL2       -0.3022
     10 N           0.4242    1.9516   -0.6181 N.am    5  ASP5       -0.3021
     11 N           1.3293   -2.7338    0.2080 N.am    3  LEU3       -0.3025
     12 N          -1.1352   -0.2765   -0.2085 N.am    4  TRP4       -0.3022
     13 NE1        -5.6908   -0.6234    0.0162 N.ar    4  TRP4       -0.3604
     14 CA          4.6115    0.9971    0.9892 C.3     1  PRO1        0.1023
     15 CB          5.2292    1.6202    2.2443 C.3     1  PRO1       -0.0243
     16 CG          4.0320    2.2110    2.9782 C.3     1  PRO1       -0.0350
     17 CD          3.1565    2.7117    1.8416 C.3     1  PRO1        0.0156
     18 C           4.3099   -0.5095    1.1618 C.2     1  PRO1        0.2342
     19 C           2.8103    1.8263   -0.4866 C.2     5  ASP5        0.2369
     20 CA          3.7550   -2.5792   -0.1144 C.3     2  VAL2        0.1017
     21 CA          1.6249    2.7998   -0.7074 C.3     5  ASP5        0.1047
     22 CB          4.7631   -3.3752   -0.9712 C.3     2  VAL2       -0.0197
     23 CA         -0.0580   -2.4937   -0.1645 C.3     3  LEU3        0.0996
     24 C           2.3399   -2.5946   -0.7219 C.2     2  VAL2        0.2342
     25 CB          1.6885    3.4389   -2.0842 C.3     5  ASP5        0.0138
     26 CA         -1.5998    0.9869    0.3804 C.3     4  TRP4        0.1034
     27 CB         -1.0001   -3.6129    0.3027 C.3     3  LEU3       -0.0236
     28 CG         -0.9346   -4.9058   -0.5388 C.3     3  LEU3       -0.0446
     29 C          -0.4723    2.0362    0.4251 C.2     4  TRP4        0.2343
     30 CB         -2.7741    1.5915   -0.4037 C.3     4  TRP4        0.0013
     31 C          -0.4429   -1.1882    0.5522 C.2     3  LEU3        0.2340
     32 CG1         4.3108   -4.8266   -1.1713 C.3     2  VAL2       -0.0605
     33 CG2         6.1505   -3.3764   -0.3166 C.3     2  VAL2       -0.0605
     34 CG         -3.9499    0.6642   -0.5151 C.ar    4  TRP4       -0.0201
     35 CG          2.8575    4.4113   -2.1826 C.2     5  ASP5        0.0440
     36 CD1         0.3586   -5.6940   -0.3292 C.3     3  LEU3       -0.0626
     37 CD2        -2.1268   -5.8051   -0.1955 C.3     3  LEU3       -0.0626
     38 CD2        -4.4670    0.0709   -1.7120 C.ar    4  TRP4        0.0029
     39 CD1        -4.7398    0.2167    0.5265 C.ar    4  TRP4        0.0060
     40 CE2        -5.5490   -0.7313   -1.3470 C.ar    4  TRP4        0.0467
     41 CE3        -4.1147    0.1414   -3.0758 C.ar    4  TRP4       -0.0523
     42 CZ2        -6.2941   -1.4686   -2.2753 C.ar    4  TRP4       -0.0378
     43 CZ3        -4.8510   -0.5867   -4.0176 C.ar    4  TRP4       -0.0611
     44 CH2        -5.9241   -1.3802   -3.6203 C.ar    4  TRP4       -0.0598
     45 H           3.9162   -0.5761   -0.8417 H       2  VAL2        0.1495
     46 H           0.4785    1.0759   -1.1228 H       5  ASP5        0.1495
     47 H           1.5676   -2.5137    1.1741 H       3  LEU3        0.1495
     48 H          -1.3386   -0.4676   -1.1823 H       4  TRP4        0.1495
     49 HE1        -6.4000   -1.0965    0.5580 H       4  TRP4        0.1653
     50 HA          5.2916    1.1160    0.1364 H       1  PRO1        0.0597
     51 HB1         5.9083    2.4317    1.9535 H       1  PRO1        0.0288
     52 HB2         5.7941    0.9163    2.8622 H       1  PRO1        0.0288
     53 HG1         4.3096    3.0053    3.6766 H       1  PRO1        0.0281
     54 HG2         3.5119    1.4255    3.5389 H       1  PRO1        0.0281
     55 HD1         2.1000    2.7430    2.1173 H       1  PRO1        0.0465
     56 HD2         3.4758    3.7042    1.5061 H       1  PRO1        0.0465
     57 HA          3.7155   -3.0139    0.8916 H       2  VAL2        0.0597
     58 HA          1.5799    3.5701    0.0653 H       5  ASP5        0.0598
     59 HB          4.8560   -2.9084   -1.9604 H       2  VAL2        0.0318
     60 HA         -0.1506   -2.3523   -1.2466 H       3  LEU3        0.0594
     61 HB1         0.7625    3.9926   -2.2837 H       5  ASP5        0.0348
     62 HB2         1.7921    2.6841   -2.8734 H       5  ASP5        0.0348
     63 HA         -1.8938    0.7842    1.4179 H       4  TRP4        0.0598
     64 HB1        -2.0284   -3.2284    0.2570 H       3  LEU3        0.0290
     65 HB2        -0.8126   -3.8490    1.3588 H       3  LEU3        0.0290
     66 HG         -1.0119   -4.6436   -1.6015 H       3  LEU3        0.0296
     67 HB1        -2.4391    1.8834   -1.4072 H       4  TRP4        0.0337
     68 HB2        -3.1047    2.5189    0.0825 H       4  TRP4        0.0337
     69 HG11        4.1133   -5.3177   -0.2121 H       2  VAL2        0.0233
     70 HG12        5.0772   -5.4068   -1.6967 H       2  VAL2        0.0233
     71 HG13        3.4000   -4.8794   -1.7752 H       2  VAL2        0.0233
     72 HG21        6.1141   -3.8165    0.6864 H       2  VAL2        0.0233
     73 HG22        6.5513   -2.3618   -0.2276 H       2  VAL2        0.0233
     74 HG23        6.8619   -3.9581   -0.9131 H       2  VAL2        0.0233
     75 HD11        0.5540   -5.8666    0.7344 H       3  LEU3        0.0232
     76 HD12        1.2156   -5.1718   -0.7565 H       3  LEU3        0.0232
     77 HD13        0.3076   -6.6699   -0.8247 H       3  LEU3        0.0232
     78 HD21       -2.1093   -6.1027    0.8587 H       3  LEU3        0.0232
     79 HD22       -2.1165   -6.7157   -0.8049 H       3  LEU3        0.0232
     80 HD23       -3.0735   -5.2896   -0.3891 H       3  LEU3        0.0232
     81 HD1        -4.6973    0.4207    1.5888 H       4  TRP4        0.0810
     82 HE3        -3.2860    0.7630   -3.4034 H       4  TRP4        0.0624
     83 HZ2        -7.1330   -2.0844   -1.9691 H       4  TRP4        0.0638
     84 HZ3        -4.5820   -0.5256   -5.0694 H       4  TRP4        0.0618
     85 HH2        -6.4852   -1.9361   -4.3677 H       4  TRP4        0.0618
@<TRIPOS>BOND
     1     1    18    2
     2     2    19    2
     3     3    24    2
     4     4    29    2
     5     5    31    2
     6     6    35   ar
     7     7    35   ar
     8     8    14    1
     9     8    17    1
    10     8    19   am
    11     9    18   am
    12     9    20    1
    13    10    21    1
    14    10    29   am
    15    11    23    1
    16    11    24   am
    17    12    26    1
    18    12    31   am
    19    13    39   ar
    20    13    40   ar
    21    14    15    1
    22    14    18    1
    23    15    16    1
    24    16    17    1
    25    19    21    1
    26    20    22    1
    27    20    24    1
    28    21    25    1
    29    22    32    1
    30    22    33    1
    31    23    27    1
    32    23    31    1
    33    25    35    1
    34    26    29    1
    35    26    30    1
    36    27    28    1
    37    28    36    1
    38    28    37    1
    39    30    34    1
    40    34    38   ar
    41    34    39   ar
    42    38    40   ar
    43    38    41   ar
    44    40    42   ar
    45    41    43   ar
    46    42    44   ar
    47    43    44   ar
    48     9    45    1
    49    10    46    1
    50    11    47    1
    51    12    48    1
    52    13    49    1
    53    14    50    1
    54    15    51    1
    55    15    52    1
    56    16    53    1
    57    16    54    1
    58    17    55    1
    59    17    56    1
    60    20    57    1
    61    21    58    1
    62    22    59    1
    63    23    60    1
    64    25    61    1
    65    25    62    1
    66    26    63    1
    67    27    64    1
    68    27    65    1
    69    28    66    1
    70    30    67    1
    71    30    68    1
    72    32    69    1
    73    32    70    1
    74    32    71    1
    75    33    72    1
    76    33    73    1
    77    33    74    1
    78    36    75    1
    79    36    76    1
    80    36    77    1
    81    37    78    1
    82    37    79    1
    83    37    80    1
    84    39    81    1
    85    41    82    1
    86    42    83    1
    87    43    84    1
    88    44    85    1
@<TRIPOS>MOLECULE
16219006
 85 88 0 0 0
SMALL
GASTEIGER

@<TRIPOS>ATOM
      1 O           4.3703   -1.0018    2.2552 O.2     1  PRO1       -0.2738
      2 O           3.3764    1.1802   -1.4256 O.2     5  ASP5       -0.2735
      3 O           2.1380   -2.0016   -1.8588 O.2     2  VAL2       -0.2738
      4 O          -0.3813    2.8311    1.3744 O.2     4  TRP4       -0.2738
      5 O          -0.2464   -1.2190    1.7331 O.2     3  LEU3       -0.2738
      6 OD1        -0.7320    3.6581   -2.5446 O.co2   5  ASP5       -0.5497
      7 OD2         0.6593    5.3871   -1.9768 O.co2   5  ASP5       -0.5497
      8 N           3.4650    1.8297    0.7355 N.am    1  PRO1       -0.2884
      9 N           4.1837   -1.1001   -0.0232 N.am    2  VAL2       -0.3022
     10 N           0.5214    1.7650   -0.4542 N.am    5  ASP5       -0.3021
     11 N           1.2775   -2.8279    0.0976 N.am    3  LEU3       -0.3025
     12 N          -1.1719   -0.3311   -0.1687 N.am    4  TRP4       -0.3022
     13 NE1        -5.5141   -0.9455   -0.0110 N.ar    4  TRP4       -0.3604
     14 CA          4.6934    1.0782    0.9954 C.3     1  PRO1        0.1023
     15 CB          5.2462    1.7119    2.2732 C.3     1  PRO1       -0.0243
     16 CG          3.9951    2.1846    3.0048 C.3     1  PRO1       -0.0350
     17 CD          3.0860    2.6473    1.8765 C.3     1  PRO1        0.0156
     18 C           4.3984   -0.4325    1.1656 C.2     1  PRO1        0.2342
     19 C           2.9067    1.8863   -0.5256 C.2     5  ASP5        0.2369
     20 CA          3.7057   -2.4795   -0.0614 C.3     2  VAL2        0.1017
     21 CA          1.6074    2.7071   -0.7166 C.3     5  ASP5        0.1047
     22 CB          4.6433   -3.3956   -0.8776 C.3     2  VAL2       -0.0197
     23 CA         -0.0960   -2.5323   -0.2918 C.3     3  LEU3        0.0996
     24 C           2.3133   -2.4112   -0.7129 C.2     2  VAL2        0.2342
     25 CB          1.5413    3.2201   -2.1485 C.3     5  ASP5        0.0138
     26 CA         -1.5892    0.9220    0.4807 C.3     4  TRP4        0.1034
     27 CB         -1.0451   -3.6888    0.0387 C.3     3  LEU3       -0.0236
     28 CG         -0.7225   -5.0071   -0.6929 C.3     3  LEU3       -0.0446
     29 C          -0.4151    1.9245    0.5430 C.2     4  TRP4        0.2343
     30 CB         -2.7815    1.5559   -0.2508 C.3     4  TRP4        0.0013
     31 C          -0.4984   -1.3000    0.5310 C.2     3  LEU3        0.2340
     32 CG1         4.0829   -4.8214   -0.9730 C.3     2  VAL2       -0.0605
     33 CG2         6.0421   -3.4527   -0.2536 C.3     2  VAL2       -0.0605
     34 CG         -4.0174    0.6854   -0.3221 C.ar    4  TRP4       -0.0201
     35 CG          0.3726    4.1826   -2.2216 C.2     5  ASP5        0.0440
     36 CD1        -1.7023   -6.0959   -0.2483 C.3     3  LEU3       -0.0626
     37 CD2        -0.7689   -4.8597   -2.2143 C.3     3  LEU3       -0.0626
     38 CD2        -5.1557    0.9238   -1.1634 C.ar    4  TRP4        0.0029
     39 CD1        -4.2953   -0.4698    0.3873 C.ar    4  TRP4        0.0060
     40 CE2        -6.0673   -0.1112   -0.9511 C.ar    4  TRP4        0.0467
     41 CE3        -5.4912    1.9316   -2.0906 C.ar    4  TRP4       -0.0523
     42 CZ2        -7.2944   -0.1939   -1.6207 C.ar    4  TRP4       -0.0378
     43 CZ3        -6.7182    1.8704   -2.7623 C.ar    4  TRP4       -0.0611
     44 CH2        -7.6045    0.8210   -2.5302 C.ar    4  TRP4       -0.0598
     45 H           3.9725   -0.5113   -0.8378 H       2  VAL2        0.1495
     46 H           0.3649    1.0577   -1.1586 H       5  ASP5        0.1495
     47 H           1.4506   -2.7883    1.0996 H       3  LEU3        0.1495
     48 H          -1.2726   -0.3934   -1.1752 H       4  TRP4        0.1495
     49 HE1        -5.9536   -1.7840    0.3397 H       4  TRP4        0.1653
     50 HA          5.4013    1.1987    0.1665 H       1  PRO1        0.0597
     51 HB1         5.8630    2.5818    2.0145 H       1  PRO1        0.0288
     52 HB2         5.8555    1.0353    2.8794 H       1  PRO1        0.0288
     53 HG1         4.2008    2.9777    3.7291 H       1  PRO1        0.0281
     54 HG2         3.5339    1.3465    3.5400 H       1  PRO1        0.0281
     55 HD1         2.0320    2.5150    2.1220 H       1  PRO1        0.0465
     56 HD2         3.2730    3.6961    1.6216 H       1  PRO1        0.0465
     57 HA          3.6140   -2.8695    0.9589 H       2  VAL2        0.0597
     58 HA          1.5685    3.5392   -0.0080 H       5  ASP5        0.0598
     59 HB          4.7437   -3.0026   -1.8978 H       2  VAL2        0.0318
     60 HA         -0.1508   -2.2841   -1.3561 H       3  LEU3        0.0594
     61 HB1         1.4100    2.4093   -2.8752 H       5  ASP5        0.0348
     62 HB2         2.4659    3.7469   -2.4153 H       5  ASP5        0.0348
     63 HA         -1.8558    0.6896    1.5195 H       4  TRP4        0.0598
     64 HB1        -2.0737   -3.3827   -0.1955 H       3  LEU3        0.0290
     65 HB2        -1.0261   -3.8754    1.1215 H       3  LEU3        0.0290
     66 HG          0.2862   -5.3344   -0.4116 H       3  LEU3        0.0296
     67 HB1        -2.4831    1.8098   -1.2765 H       4  TRP4        0.0337
     68 HB2        -3.0534    2.4997    0.2389 H       4  TRP4        0.0337
     69 HG11        3.9221   -5.2516    0.0217 H       2  VAL2        0.0233
     70 HG12        4.7735   -5.4759   -1.5158 H       2  VAL2        0.0233
     71 HG13        3.1288   -4.8423   -1.5094 H       2  VAL2        0.0233
     72 HG21        6.0007   -3.8194    0.7779 H       2  VAL2        0.0233
     73 HG22        6.5154   -2.4660   -0.2458 H       2  VAL2        0.0233
     74 HG23        6.6938   -4.1240   -0.8234 H       2  VAL2        0.0233
     75 HD11       -2.7330   -5.8346   -0.5114 H       3  LEU3        0.0232
     76 HD12       -1.6552   -6.2427    0.8360 H       3  LEU3        0.0232
     77 HD13       -1.4630   -7.0527   -0.7242 H       3  LEU3        0.0232
     78 HD21       -1.7315   -4.4553   -2.5449 H       3  LEU3        0.0232
     79 HD22       -0.6229   -5.8289   -2.7033 H       3  LEU3        0.0232
     80 HD23        0.0229   -4.1961   -2.5747 H       3  LEU3        0.0232
     81 HD1        -3.7221   -1.0016    1.1354 H       4  TRP4        0.0810
     82 HE3        -4.8026    2.7522   -2.2813 H       4  TRP4        0.0624
     83 HZ2        -7.9847   -1.0108   -1.4414 H       4  TRP4        0.0638
     84 HZ3        -6.9745    2.6528   -3.4719 H       4  TRP4        0.0618
     85 HH2        -8.5509    0.7911   -3.0640 H       4  TRP4        0.0618
@<TRIPOS>BOND
     1     1    18    2
     2     2    19    2
     3     3    24    2
     4     4    29    2
     5     5    31    2
     6     6    35   ar
     7     7    35   ar
     8     8    14    1
     9     8    17    1
    10     8    19   am
    11     9    18   am
    12     9    20    1
    13    10    21    1
    14    10    29   am
    15    11    23    1
    16    11    24   am
    17    12    26    1
    18    12    31   am
    19    13    39   ar
    20    13    40   ar
    21    14    15    1
    22    14    18    1
    23    15    16    1
    24    16    17    1
    25    19    21    1
    26    20    22    1
    27    20    24    1
    28    21    25    1
    29    22    32    1
    30    22    33    1
    31    23    27    1
    32    23    31    1
    33    25    35    1
    34    26    29    1
    35    26    30    1
    36    27    28    1
    37    28    36    1
    38    28    37    1
    39    30    34    1
    40    34    38   ar
    41    34    39   ar
    42    38    40   ar
    43    38    41   ar
    44    40    42   ar
    45    41    43   ar
    46    42    44   ar
    47    43    44   ar
    48     9    45    1
    49    10    46    1
    50    11    47    1
    51    12    48    1
    52    13    49    1
    53    14    50    1
    54    15    51    1
    55    15    52    1
    56    16    53    1
    57    16    54    1
    58    17    55    1
    59    17    56    1
    60    20    57    1
    61    21    58    1
    62    22    59    1
    63    23    60    1
    64    25    61    1
    65    25    62    1
    66    26    63    1
    67    27    64    1
    68    27    65    1
    69    28    66    1
    70    30    67    1
    71    30    68    1
    72    32    69    1
    73    32    70    1
    74    32    71    1
    75    33    72    1
    76    33    73    1
    77    33    74    1
    78    36    75    1
    79    36    76    1
    80    36    77    1
    81    37    78    1
    82    37    79    1
    83    37    80    1
    84    39    81    1
    85    41    82    1
    86    42    83    1
    87    43    84    1
    88    44    85    1
@<TRIPOS>MOLECULE
16219006
 85 88 0 0 0
SMALL
GASTEIGER

@<TRIPOS>ATOM
      1 O           4.2431   -0.9993    2.2271 O.2     1  PRO1       -0.2738
      2 O           3.0851    1.0077   -1.3271 O.2     5  ASP5       -0.2735
      3 O           2.0185   -2.0022   -1.8619 O.2     2  VAL2       -0.2738
      4 O          -0.4555    2.9185    1.2921 O.2     4  TRP4       -0.2738
      5 O          -0.3234   -1.1633    1.7377 O.2     3  LEU3       -0.2738
      6 OD1         3.6408    4.3603   -3.0931 O.co2   5  ASP5       -0.5497
      7 OD2         3.2063    5.0147   -0.9545 O.co2   5  ASP5       -0.5497
      8 N           3.4482    1.8291    0.7504 N.am    1  PRO1       -0.2884
      9 N           4.1633   -1.1307   -0.0593 N.am    2  VAL2       -0.3022
     10 N           0.4232    1.9814   -0.6147 N.am    5  ASP5       -0.3021
     11 N           1.2186   -2.8244    0.1121 N.am    3  LEU3       -0.3025
     12 N          -1.1405   -0.2777   -0.2153 N.am    4  TRP4       -0.3022
     13 NE1        -5.4962   -0.6803   -1.3421 N.ar    4  TRP4       -0.3604
     14 CA          4.6698    1.0484    0.9430 C.3     1  PRO1        0.1023
     15 CB          5.3222    1.6670    2.1832 C.3     1  PRO1       -0.0243
     16 CG          4.1495    2.2742    2.9437 C.3     1  PRO1       -0.0350
     17 CD          3.2511    2.7820    1.8289 C.3     1  PRO1        0.0156
     18 C           4.3477   -0.4530    1.1317 C.2     1  PRO1        0.2342
     19 C           2.8145    1.8621   -0.4710 C.2     5  ASP5        0.2369
     20 CA          3.6469   -2.4920   -0.1075 C.3     2  VAL2        0.1017
     21 CA          1.6253    2.8333   -0.6703 C.3     5  ASP5        0.1047
     22 CB          4.5965   -3.4463   -0.8658 C.3     2  VAL2       -0.0197
     23 CA         -0.1602   -2.5289   -0.2551 C.3     3  LEU3        0.0996
     24 C           2.2378   -2.4177   -0.7266 C.2     2  VAL2        0.2342
     25 CB          1.7242    3.5113   -2.0261 C.3     5  ASP5        0.0138
     26 CA         -1.5796    0.9748    0.4070 C.3     4  TRP4        0.1034
     27 CB         -1.1044   -3.6779    0.1109 C.3     3  LEU3       -0.0236
     28 CG         -0.7918   -5.0062   -0.6103 C.3     3  LEU3       -0.0446
     29 C          -0.4489    2.0187    0.4532 C.2     4  TRP4        0.2343
     30 CB         -2.7741    1.5936   -0.3355 C.3     4  TRP4        0.0013
     31 C          -0.5419   -1.2658    0.5309 C.2     3  LEU3        0.2340
     32 CG1         4.8783   -3.0464   -2.3171 C.3     2  VAL2       -0.0605
     33 CG2         4.0838   -4.8893   -0.8132 C.3     2  VAL2       -0.0605
     34 CG         -3.9449    0.6610   -0.4654 C.ar    4  TRP4       -0.0201
     35 CG          2.9787    4.3776   -2.0186 C.2     5  ASP5        0.0440
     36 CD1        -1.7743   -6.0868   -0.1540 C.3     3  LEU3       -0.0626
     37 CD2        -0.8390   -4.8763   -2.1337 C.3     3  LEU3       -0.0626
     38 CD2        -4.7576    0.1395    0.5942 C.ar    4  TRP4        0.0029
     39 CD1        -4.4392    0.1349   -1.6437 C.ar    4  TRP4        0.0060
     40 CE2        -5.7072   -0.7036    0.0166 C.ar    4  TRP4        0.0467
     41 CE3        -4.7680    0.2991    1.9954 C.ar    4  TRP4       -0.0523
     42 CZ2        -6.6606   -1.4012    0.7679 C.ar    4  TRP4       -0.0378
     43 CZ3        -5.7120   -0.3932    2.7629 C.ar    4  TRP4       -0.0611
     44 CH2        -6.6428   -1.2315    2.1562 C.ar    4  TRP4       -0.0598
     45 H           3.9399   -0.5305   -0.8637 H       2  VAL2        0.1495
     46 H           0.4939    1.1180   -1.1388 H       5  ASP5        0.1495
     47 H           1.4152   -2.7811    1.1098 H       3  LEU3        0.1495
     48 H          -1.2031   -0.3672   -1.2215 H       4  TRP4        0.1495
     49 HE1        -6.0461   -1.1933   -2.0151 H       4  TRP4        0.1653
     50 HA          5.3288    1.1561    0.0726 H       1  PRO1        0.0597
     51 HB1         6.0050    2.4692    1.8751 H       1  PRO1        0.0288
     52 HB2         5.8915    0.9565    2.7896 H       1  PRO1        0.0288
     53 HG1         4.4529    3.0676    3.6326 H       1  PRO1        0.0281
     54 HG2         3.6341    1.4973    3.5198 H       1  PRO1        0.0281
     55 HD1         2.2012    2.8221    2.1310 H       1  PRO1        0.0465
     56 HD2         3.5702    3.7696    1.4822 H       1  PRO1        0.0465
     57 HA          3.5548   -2.8667    0.9187 H       2  VAL2        0.0597
     58 HA          1.5666    3.5743    0.1289 H       5  ASP5        0.0598
     59 HB          5.5611   -3.4247   -0.3410 H       2  VAL2        0.0318
     60 HA         -0.2344   -2.3119   -1.3254 H       3  LEU3        0.0594
     61 HB1         0.8519    4.1509   -2.2079 H       5  ASP5        0.0348
     62 HB2         1.7698    2.7798   -2.8411 H       5  ASP5        0.0348
     63 HA         -1.8464    0.7557    1.4478 H       4  TRP4        0.0598
     64 HB1        -2.1363   -3.3745   -0.1112 H       3  LEU3        0.0290
     65 HB2        -1.0667   -3.8494    1.1956 H       3  LEU3        0.0290
     66 HG          0.2164   -5.3358   -0.3281 H       3  LEU3        0.0296
     67 HB1        -2.4609    1.9142   -1.3383 H       4  TRP4        0.0337
     68 HB2        -3.1028    2.5041    0.1828 H       4  TRP4        0.0337
     69 HG11        3.9914   -3.1472   -2.9502 H       2  VAL2        0.0233
     70 HG12        5.6535   -3.6925   -2.7431 H       2  VAL2        0.0233
     71 HG13        5.2378   -2.0156   -2.3869 H       2  VAL2        0.0233
     72 HG21        3.1415   -5.0039   -1.3607 H       2  VAL2        0.0233
     73 HG22        3.9161   -5.2064    0.2215 H       2  VAL2        0.0233
     74 HG23        4.8125   -5.5752   -1.2570 H       2  VAL2        0.0233
     75 HD11       -2.8044   -5.8260   -0.4209 H       3  LEU3        0.0232
     76 HD12       -1.7280   -6.2231    0.9311 H       3  LEU3        0.0232
     77 HD13       -1.5373   -7.0496   -0.6207 H       3  LEU3        0.0232
     78 HD21       -1.7972   -4.4629   -2.4675 H       3  LEU3        0.0232
     79 HD22       -0.7062   -5.8520   -2.6121 H       3  LEU3        0.0232
     80 HD23       -0.0391   -4.2274   -2.5044 H       3  LEU3        0.0232
     81 HD1        -4.1275    0.2743   -2.6702 H       4  TRP4        0.0810
     82 HE3        -4.0476    0.9488    2.4837 H       4  TRP4        0.0624
     83 HZ2        -7.3884   -2.0532    0.2983 H       4  TRP4        0.0638
     84 HZ3        -5.7116   -0.2733    3.8436 H       4  TRP4        0.0618
     85 HH2        -7.3665   -1.7619    2.7700 H       4  TRP4        0.0618
@<TRIPOS>BOND
     1     1    18    2
     2     2    19    2
     3     3    24    2
     4     4    29    2
     5     5    31    2
     6     6    35   ar
     7     7    35   ar
     8     8    14    1
     9     8    17    1
    10     8    19   am
    11     9    18   am
    12     9    20    1
    13    10    21    1
    14    10    29   am
    15    11    23    1
    16    11    24   am
    17    12    26    1
    18    12    31   am
    19    13    39   ar
    20    13    40   ar
    21    14    15    1
    22    14    18    1
    23    15    16    1
    24    16    17    1
    25    19    21    1
    26    20    22    1
    27    20    24    1
    28    21    25    1
    29    22    32    1
    30    22    33    1
    31    23    27    1
    32    23    31    1
    33    25    35    1
    34    26    29    1
    35    26    30    1
    36    27    28    1
    37    28    36    1
    38    28    37    1
    39    30    34    1
    40    34    38   ar
    41    34    39   ar
    42    38    40   ar
    43    38    41   ar
    44    40    42   ar
    45    41    43   ar
    46    42    44   ar
    47    43    44   ar
    48     9    45    1
    49    10    46    1
    50    11    47    1
    51    12    48    1
    52    13    49    1
    53    14    50    1
    54    15    51    1
    55    15    52    1
    56    16    53    1
    57    16    54    1
    58    17    55    1
    59    17    56    1
    60    20    57    1
    61    21    58    1
    62    22    59    1
    63    23    60    1
    64    25    61    1
    65    25    62    1
    66    26    63    1
    67    27    64    1
    68    27    65    1
    69    28    66    1
    70    30    67    1
    71    30    68    1
    72    32    69    1
    73    32    70    1
    74    32    71    1
    75    33    72    1
    76    33    73    1
    77    33    74    1
    78    36    75    1
    79    36    76    1
    80    36    77    1
    81    37    78    1
    82    37    79    1
    83    37    80    1
    84    39    81    1
    85    41    82    1
    86    42    83    1
    87    43    84    1
    88    44    85    1
@<TRIPOS>MOLECULE
16219006
 85 88 0 0 0
SMALL
GASTEIGER

@<TRIPOS>ATOM
      1 O           4.1297   -1.0309    2.2839 O.2     1  PRO1       -0.2738
      2 O           3.1280    0.9893   -1.3325 O.2     5  ASP5       -0.2735
      3 O           2.0597   -2.2796   -1.8408 O.2     2  VAL2       -0.2738
      4 O          -0.5938    3.0218    1.1224 O.2     4  TRP4       -0.2738
      5 O          -0.5720   -1.1304    1.8096 O.2     3  LEU3       -0.2738
      6 OD1         3.1126    4.8746   -3.3224 O.co2   5  ASP5       -0.5497
      7 OD2         3.6080    4.5596   -1.1198 O.co2   5  ASP5       -0.5497
      8 N           3.4199    1.7787    0.7719 N.am    1  PRO1       -0.2884
      9 N           4.1463   -1.1917    0.0007 N.am    2  VAL2       -0.3022
     10 N           0.4613    1.9513   -0.6132 N.am    5  ASP5       -0.3021
     11 N           1.2415   -2.7057    0.2527 N.am    3  LEU3       -0.3025
     12 N          -1.1708   -0.2817   -0.2398 N.am    4  TRP4       -0.3022
     13 NE1        -2.0277    1.6862   -4.1394 N.ar    4  TRP4       -0.3604
     14 CA          4.6329    0.9951    0.9917 C.3     1  PRO1        0.1023
     15 CB          5.2678    1.6168    2.2386 C.3     1  PRO1       -0.0243
     16 CG          4.0842    2.2303    2.9774 C.3     1  PRO1       -0.0350
     17 CD          3.2040    2.7330    1.8451 C.3     1  PRO1        0.0156
     18 C           4.2887   -0.4988    1.1865 C.2     1  PRO1        0.2342
     19 C           2.8357    1.8394   -0.4776 C.2     5  ASP5        0.2369
     20 CA          3.6764   -2.5708   -0.0416 C.3     2  VAL2        0.1017
     21 CA          1.6503    2.8145   -0.6902 C.3     5  ASP5        0.1047
     22 CB          4.6052   -3.4637   -0.8932 C.3     2  VAL2       -0.0197
     23 CA         -0.1394   -2.4940   -0.1511 C.3     3  LEU3        0.0996
     24 C           2.2645   -2.5136   -0.6508 C.2     2  VAL2        0.2342
     25 CB          1.7186    3.4698   -2.0596 C.3     5  ASP5        0.0138
     26 CA         -1.6401    1.0116    0.2713 C.3     4  TRP4        0.1034
     27 CB         -1.0293   -3.6929    0.1977 C.3     3  LEU3       -0.0236
     28 CG         -0.6846   -4.9894   -0.5662 C.3     3  LEU3       -0.0446
     29 C          -0.5192    2.0732    0.3425 C.2     4  TRP4        0.2343
     30 CB         -2.8427    1.5253   -0.5390 C.3     4  TRP4        0.0013
     31 C          -0.6387   -1.2422    0.5873 C.2     3  LEU3        0.2340
     32 CG1         4.0608   -4.8956   -0.9887 C.3     2  VAL2       -0.0605
     33 CG2         6.0199   -3.5085   -0.3041 C.3     2  VAL2       -0.0605
     34 CG         -2.5505    1.8551   -1.9768 C.ar    4  TRP4       -0.0201
     35 CG          2.9313    4.3856   -2.1710 C.2     5  ASP5        0.0440
     36 CD1        -1.6237   -6.1142   -0.1213 C.3     3  LEU3       -0.0626
     37 CD2        -0.7720   -4.8245   -2.0849 C.3     3  LEU3       -0.0626
     38 CD2        -2.4502    3.1719   -2.5360 C.ar    4  TRP4        0.0029
     39 CD1        -2.3362    0.9665   -3.0154 C.ar    4  TRP4        0.0060
     40 CE2        -2.1249    3.0320   -3.8845 C.ar    4  TRP4        0.0467
     41 CE3        -2.5896    4.4742   -2.0130 C.ar    4  TRP4       -0.0523
     42 CZ2        -1.9274    4.1252   -4.7357 C.ar    4  TRP4       -0.0378
     43 CZ3        -2.4086    5.5790   -2.8526 C.ar    4  TRP4       -0.0611
     44 CH2        -2.0798    5.4040   -4.1941 C.ar    4  TRP4       -0.0598
     45 H           3.9555   -0.6058   -0.8217 H       2  VAL2        0.1495
     46 H           0.4890    1.1350   -1.2055 H       5  ASP5        0.1495
     47 H           1.4538   -2.5575    1.2374 H       3  LEU3        0.1495
     48 H          -0.9614   -0.3330   -1.2285 H       4  TRP4        0.1495
     49 HE1        -1.7677    1.2962   -5.0346 H       4  TRP4        0.1653
     50 HA          5.3093    1.0894    0.1332 H       1  PRO1        0.0597
     51 HB1         5.9572    2.4158    1.9382 H       1  PRO1        0.0288
     52 HB2         5.8253    0.9068    2.8562 H       1  PRO1        0.0288
     53 HG1         4.3788    3.0265    3.6664 H       1  PRO1        0.0281
     54 HG2         3.5590    1.4572    3.5503 H       1  PRO1        0.0281
     55 HD1         2.1488    2.7715    2.1267 H       1  PRO1        0.0465
     56 HD2         3.5277    3.7219    1.5042 H       1  PRO1        0.0465
     57 HA          3.6168   -2.9776    0.9748 H       2  VAL2        0.0597
     58 HA          1.5946    3.5734    0.0926 H       5  ASP5        0.0598
     59 HB          4.6757   -3.0580   -1.9109 H       2  VAL2        0.0318
     60 HA         -0.1942   -2.3018   -1.2262 H       3  LEU3        0.0594
     61 HB1         0.8173    4.0697   -2.2342 H       5  ASP5        0.0348
     62 HB2         1.7681    2.7191   -2.8581 H       5  ASP5        0.0348
     63 HA         -1.9683    0.8489    1.3057 H       4  TRP4        0.0598
     64 HB1        -2.0766   -3.4263    0.0007 H       3  LEU3        0.0290
     65 HB2        -0.9656   -3.8917    1.2765 H       3  LEU3        0.0290
     66 HG          0.3395   -5.2906   -0.3132 H       3  LEU3        0.0296
     67 HB1        -3.2534    2.4119   -0.0407 H       4  TRP4        0.0337
     68 HB2        -3.6386    0.7687   -0.5182 H       4  TRP4        0.0337
     69 HG11        3.9329   -5.3380    0.0055 H       2  VAL2        0.0233
     70 HG12        4.7444   -5.5350   -1.5574 H       2  VAL2        0.0233
     71 HG13        3.0923   -4.9240   -1.4983 H       2  VAL2        0.0233
     72 HG21        6.0084   -3.8855    0.7245 H       2  VAL2        0.0233
     73 HG22        6.4806   -2.5160   -0.2981 H       2  VAL2        0.0233
     74 HG23        6.6659   -4.1659   -0.8964 H       2  VAL2        0.0233
     75 HD11       -2.6661   -5.8795   -0.3632 H       3  LEU3        0.0232
     76 HD12       -1.5533   -6.2774    0.9588 H       3  LEU3        0.0232
     77 HD13       -1.3658   -7.0557   -0.6183 H       3  LEU3        0.0232
     78 HD21       -1.7462   -4.4248   -2.3862 H       3  LEU3        0.0232
     79 HD22       -0.6299   -5.7859   -2.5904 H       3  LEU3        0.0232
     80 HD23        0.0041   -4.1511   -2.4599 H       3  LEU3        0.0232
     81 HD1        -2.3460   -0.1139   -3.0517 H       4  TRP4        0.0810
     82 HE3        -2.8154    4.6281   -0.9620 H       4  TRP4        0.0624
     83 HZ2        -1.6422    3.9939   -5.7740 H       4  TRP4        0.0638
     84 HZ3        -2.4997    6.5822   -2.4450 H       4  TRP4        0.0618
     85 HH2        -1.9126    6.2744   -4.8236 H       4  TRP4        0.0618
@<TRIPOS>BOND
     1     1    18    2
     2     2    19    2
     3     3    24    2
     4     4    29    2
     5     5    31    2
     6     6    35   ar
     7     7    35   ar
     8     8    14    1
     9     8    17    1
    10     8    19   am
    11     9    18   am
    12     9    20    1
    13    10    21    1
    14    10    29   am
    15    11    23    1
    16    11    24   am
    17    12    26    1
    18    12    31   am
    19    13    39   ar
    20    13    40   ar
    21    14    15    1
    22    14    18    1
    23    15    16    1
    24    16    17    1
    25    19    21    1
    26    20    22    1
    27    20    24    1
    28    21    25    1
    29    22    32    1
    30    22    33    1
    31    23    27    1
    32    23    31    1
    33    25    35    1
    34    26    29    1
    35    26    30    1
    36    27    28    1
    37    28    36    1
    38    28    37    1
    39    30    34    1
    40    34    38   ar
    41    34    39   ar
    42    38    40   ar
    43    38    41   ar
    44    40    42   ar
    45    41    43   ar
    46    42    44   ar
    47    43    44   ar
    48     9    45    1
    49    10    46    1
    50    11    47    1
    51    12    48    1
    52    13    49    1
    53    14    50    1
    54    15    51    1
    55    15    52    1
    56    16    53    1
    57    16    54    1
    58    17    55    1
    59    17    56    1
    60    20    57    1
    61    21    58    1
    62    22    59    1
    63    23    60    1
    64    25    61    1
    65    25    62    1
    66    26    63    1
    67    27    64    1
    68    27    65    1
    69    28    66    1
    70    30    67    1
    71    30    68    1
    72    32    69    1
    73    32    70    1
    74    32    71    1
    75    33    72    1
    76    33    73    1
    77    33    74    1
    78    36    75    1
    79    36    76    1
    80    36    77    1
    81    37    78    1
    82    37    79    1
    83    37    80    1
    84    39    81    1
    85    41    82    1
    86    42    83    1
    87    43    84    1
    88    44    85    1
@<TRIPOS>MOLECULE
16219006
 85 88 0 0 0
SMALL
GASTEIGER

@<TRIPOS>ATOM
      1 O           4.4689   -1.0314    2.2361 O.2     1  PRO1       -0.2738
      2 O           3.4197    1.1845   -1.4383 O.2     5  ASP5       -0.2735
      3 O           2.0312   -1.9392   -1.8298 O.2     2  VAL2       -0.2738
      4 O          -0.2790    2.8721    1.3902 O.2     4  TRP4       -0.2738
      5 O          -0.2349   -1.1789    1.7468 O.2     3  LEU3       -0.2738
      6 OD1         0.9149    5.4320   -2.4705 O.co2   5  ASP5       -0.5497
      7 OD2        -0.6660    3.7806   -2.3603 O.co2   5  ASP5       -0.5497
      8 N           3.5067    1.8341    0.7214 N.am    1  PRO1       -0.2884
      9 N           4.0969   -1.0912   -0.0192 N.am    2  VAL2       -0.3022
     10 N           0.5729    1.8012   -0.4582 N.am    5  ASP5       -0.3021
     11 N           1.1841   -2.8529    0.0936 N.am    3  LEU3       -0.3025
     12 N          -1.1617   -0.2673   -0.1444 N.am    4  TRP4       -0.3022
     13 NE1        -5.4716   -0.4984   -1.3373 N.ar    4  TRP4       -0.3604
     14 CA          4.7233    1.0636    0.9855 C.3     1  PRO1        0.1023
     15 CB          5.2867    1.6962    2.2586 C.3     1  PRO1       -0.0243
     16 CG          4.0414    2.1816    2.9914 C.3     1  PRO1       -0.0350
     17 CD          3.1354    2.6534    1.8640 C.3     1  PRO1        0.0156
     18 C           4.4089   -0.4436    1.1575 C.2     1  PRO1        0.2342
     19 C           2.9530    1.8979   -0.5406 C.2     5  ASP5        0.2369
     20 CA          3.6122   -2.4678   -0.0551 C.3     2  VAL2        0.1017
     21 CA          1.6639    2.7297   -0.7439 C.3     5  ASP5        0.1047
     22 CB          4.5479   -3.3844   -0.8732 C.3     2  VAL2       -0.0197
     23 CA         -0.1957   -2.5220   -0.2651 C.3     3  LEU3        0.0996
     24 C           2.2156   -2.3921   -0.7016 C.2     2  VAL2        0.2342
     25 CB          1.6095    3.2086   -2.1893 C.3     5  ASP5        0.0138
     26 CA         -1.5369    0.9969    0.5051 C.3     4  TRP4        0.1034
     27 CB         -1.1367   -3.6739    0.1052 C.3     3  LEU3       -0.0236
     28 CG         -2.6131   -3.4528   -0.2827 C.3     3  LEU3       -0.0446
     29 C          -0.3406    1.9693    0.5570 C.2     4  TRP4        0.2343
     30 CB         -2.7102    1.6761   -0.2177 C.3     4  TRP4        0.0013
     31 C          -0.5258   -1.2635    0.5536 C.2     3  LEU3        0.2340
     32 CG1         3.9949   -4.8128   -0.9581 C.3     2  VAL2       -0.0605
     33 CG2         5.9535   -3.4316   -0.2620 C.3     2  VAL2       -0.0605
     34 CG         -3.9033    0.7719   -0.3886 C.ar    4  TRP4       -0.0201
     35 CG          0.5121    4.2438   -2.3377 C.2     5  ASP5        0.0440
     36 CD1        -2.8055   -3.2929   -1.7916 C.3     3  LEU3       -0.0626
     37 CD2        -3.4617   -4.6231    0.2211 C.3     3  LEU3       -0.0626
     38 CD2        -4.7257    0.2073    0.6401 C.ar    4  TRP4        0.0029
     39 CD1        -4.4038    0.3154   -1.5934 C.ar    4  TRP4        0.0060
     40 CE2        -5.6827   -0.5962    0.0177 C.ar    4  TRP4        0.0467
     41 CE3        -4.7390    0.2942    2.0474 C.ar    4  TRP4       -0.0523
     42 CZ2        -6.6424   -1.3253    0.7308 C.ar    4  TRP4       -0.0378
     43 CZ3        -5.6912   -0.4278    2.7763 C.ar    4  TRP4       -0.0611
     44 CH2        -6.6267   -1.2275    2.1250 C.ar    4  TRP4       -0.0598
     45 H           3.8814   -0.4952   -0.8272 H       2  VAL2        0.1495
     46 H           0.4027    1.0811   -1.1456 H       5  ASP5        0.1495
     47 H           1.3645   -2.8491    1.0945 H       3  LEU3        0.1495
     48 H          -1.3084   -0.3452   -1.1430 H       4  TRP4        0.1495
     49 HE1        -6.0280   -0.9637   -2.0397 H       4  TRP4        0.1653
     50 HA          5.4322    1.1693    0.1554 H       1  PRO1        0.0597
     51 HB1         5.9096    2.5601    1.9950 H       1  PRO1        0.0288
     52 HB2         5.8922    1.0171    2.8654 H       1  PRO1        0.0288
     53 HG1         4.2556    2.9724    3.7158 H       1  PRO1        0.0281
     54 HG2         3.5727    1.3474    3.5265 H       1  PRO1        0.0281
     55 HD1         2.0820    2.5266    2.1119 H       1  PRO1        0.0465
     56 HD2         3.3278    3.7014    1.6104 H       1  PRO1        0.0465
     57 HA          3.5229   -2.8536    0.9669 H       2  VAL2        0.0597
     58 HA          1.6354    3.5789   -0.0553 H       5  ASP5        0.0598
     59 HB          4.6382   -2.9958   -1.8962 H       2  VAL2        0.0318
     60 HA         -0.2497   -2.3050   -1.3353 H       3  LEU3        0.0594
     61 HB1         1.4238    2.3840   -2.8880 H       5  ASP5        0.0348
     62 HB2         2.5688    3.6590   -2.4759 H       5  ASP5        0.0348
     63 HA         -1.8022    0.7676    1.5437 H       4  TRP4        0.0598
     64 HB1        -1.0796   -3.8523    1.1879 H       3  LEU3        0.0290
     65 HB2        -0.7730   -4.5948   -0.3709 H       3  LEU3        0.0290
     66 HG         -2.9814   -2.5459    0.2104 H       3  LEU3        0.0296
     67 HB1        -2.3850    2.0177   -1.2087 H       4  TRP4        0.0337
     68 HB2        -3.0169    2.5757    0.3305 H       4  TRP4        0.0337
     69 HG11        3.8455   -5.2400    0.0394 H       2  VAL2        0.0233
     70 HG12        4.6847   -5.4653   -1.5046 H       2  VAL2        0.0233
     71 HG13        3.0368   -4.8401   -1.4866 H       2  VAL2        0.0233
     72 HG21        5.9228   -3.7883    0.7734 H       2  VAL2        0.0233
     73 HG22        6.4244   -2.4439   -0.2684 H       2  VAL2        0.0233
     74 HG23        6.6020   -4.1062   -0.8314 H       2  VAL2        0.0233
     75 HD11       -2.3818   -4.1426   -2.3376 H       3  LEU3        0.0232
     76 HD12       -2.3316   -2.3796   -2.1622 H       3  LEU3        0.0232
     77 HD13       -3.8694   -3.2278   -2.0432 H       3  LEU3        0.0232
     78 HD21       -3.1542   -5.5661   -0.2436 H       3  LEU3        0.0232
     79 HD22       -4.5207   -4.4618   -0.0069 H       3  LEU3        0.0232
     80 HD23       -3.3686   -4.7325    1.3067 H       3  LEU3        0.0232
     81 HD1        -4.0857    0.5112   -2.6096 H       4  TRP4        0.0810
     82 HE3        -4.0155    0.9154    2.5677 H       4  TRP4        0.0624
     83 HZ2        -7.3749   -1.9448    0.2248 H       4  TRP4        0.0638
     84 HZ3        -5.6952   -0.3599    3.8610 H       4  TRP4        0.0618
     85 HH2        -7.3578   -1.7809    2.7090 H       4  TRP4        0.0618
@<TRIPOS>BOND
     1     1    18    2
     2     2    19    2
     3     3    24    2
     4     4    29    2
     5     5    31    2
     6     6    35   ar
     7     7    35   ar
     8     8    14    1
     9     8    17    1
    10     8    19   am
    11     9    18   am
    12     9    20    1
    13    10    21    1
    14    10    29   am
    15    11    23    1
    16    11    24   am
    17    12    26    1
    18    12    31   am
    19    13    39   ar
    20    13    40   ar
    21    14    15    1
    22    14    18    1
    23    15    16    1
    24    16    17    1
    25    19    21    1
    26    20    22    1
    27    20    24    1
    28    21    25    1
    29    22    32    1
    30    22    33    1
    31    23    27    1
    32    23    31    1
    33    25    35    1
    34    26    29    1
    35    26    30    1
    36    27    28    1
    37    28    36    1
    38    28    37    1
    39    30    34    1
    40    34    38   ar
    41    34    39   ar
    42    38    40   ar
    43    38    41   ar
    44    40    42   ar
    45    41    43   ar
    46    42    44   ar
    47    43    44   ar
    48     9    45    1
    49    10    46    1
    50    11    47    1
    51    12    48    1
    52    13    49    1
    53    14    50    1
    54    15    51    1
    55    15    52    1
    56    16    53    1
    57    16    54    1
    58    17    55    1
    59    17    56    1
    60    20    57    1
    61    21    58    1
    62    22    59    1
    63    23    60    1
    64    25    61    1
    65    25    62    1
    66    26    63    1
    67    27    64    1
    68    27    65    1
    69    28    66    1
    70    30    67    1
    71    30    68    1
    72    32    69    1
    73    32    70    1
    74    32    71    1
    75    33    72    1
    76    33    73    1
    77    33    74    1
    78    36    75    1
    79    36    76    1
    80    36    77    1
    81    37    78    1
    82    37    79    1
    83    37    80    1
    84    39    81    1
    85    41    82    1
    86    42    83    1
    87    43    84    1
    88    44    85    1
@<TRIPOS>MOLECULE
16219006
 85 88 0 0 0
SMALL
GASTEIGER

@<TRIPOS>ATOM
      1 O           4.3195   -1.0226    2.2431 O.2     1  PRO1       -0.2738
      2 O           3.2274    1.0827   -1.3486 O.2     5  ASP5       -0.2735
      3 O           2.0011   -1.8442   -1.8094 O.2     2  VAL2       -0.2738
      4 O          -0.4552    2.9558    1.2598 O.2     4  TRP4       -0.2738
      5 O          -0.3370   -1.1994    1.7397 O.2     3  LEU3       -0.2738
      6 OD1         3.5572    4.6362   -1.0997 O.co2   5  ASP5       -0.5497
      7 OD2         3.0185    4.9577   -3.2919 O.co2   5  ASP5       -0.5497
      8 N           3.4694    1.8115    0.7825 N.am    1  PRO1       -0.2884
      9 N           4.1794   -1.1050   -0.0422 N.am    2  VAL2       -0.3022
     10 N           0.4937    1.9384   -0.5689 N.am    5  ASP5       -0.3021
     11 N           1.2149   -2.8434    0.0867 N.am    3  LEU3       -0.3025
     12 N          -1.1149   -0.2794   -0.2127 N.am    4  TRP4       -0.3022
     13 NE1        -5.4688   -0.6785   -1.3444 N.ar    4  TRP4       -0.3604
     14 CA          4.7019    1.0544    0.9936 C.3     1  PRO1        0.1023
     15 CB          5.3132    1.6680    2.2560 C.3     1  PRO1       -0.0243
     16 CG          4.1093    2.2300    3.0021 C.3     1  PRO1       -0.0350
     17 CD          3.2214    2.7340    1.8766 C.3     1  PRO1        0.0156
     18 C           4.3911   -0.4511    1.1566 C.2     1  PRO1        0.2342
     19 C           2.8935    1.8896   -0.4688 C.2     5  ASP5        0.2369
     20 CA          3.6391   -2.4565   -0.1024 C.3     2  VAL2        0.1017
     21 CA          1.6716    2.8217   -0.6638 C.3     5  ASP5        0.1047
     22 CB          4.5684   -3.4186   -0.8725 C.3     2  VAL2       -0.0197
     23 CA         -0.1668   -2.5441   -0.2674 C.3     3  LEU3        0.0996
     24 C           2.2277   -2.3484   -0.7110 C.2     2  VAL2        0.2342
     25 CB          1.7042    3.4792   -2.0336 C.3     5  ASP5        0.0138
     26 CA         -1.5493    0.9737    0.4132 C.3     4  TRP4        0.1034
     27 CB         -1.1089   -3.6939    0.1009 C.3     3  LEU3       -0.0236
     28 CG         -0.7966   -5.0223   -0.6192 C.3     3  LEU3       -0.0446
     29 C          -0.4196    2.0225    0.4598 C.2     4  TRP4        0.2343
     30 CB         -2.7463    1.5916   -0.3279 C.3     4  TRP4        0.0013
     31 C          -0.5425   -1.2848    0.5304 C.2     3  LEU3        0.2340
     32 CG1         4.8296   -3.0184   -2.3272 C.3     2  VAL2       -0.0605
     33 CG2         4.0455   -4.8571   -0.8135 C.3     2  VAL2       -0.0605
     34 CG         -3.9176    0.6582   -0.4610 C.ar    4  TRP4       -0.0201
     35 CG          2.8784    4.4445   -2.1460 C.2     5  ASP5        0.0440
     36 CD1        -1.7811   -6.1018   -0.1637 C.3     3  LEU3       -0.0626
     37 CD2        -0.8415   -4.8925   -2.1429 C.3     3  LEU3       -0.0626
     38 CD2        -4.7364    0.1388    0.5945 C.ar    4  TRP4        0.0029
     39 CD1        -4.4080    0.1325   -1.6416 C.ar    4  TRP4        0.0060
     40 CE2        -5.6868   -0.7006    0.0131 C.ar    4  TRP4        0.0467
     41 CE3        -4.7527    0.2999    1.9956 C.ar    4  TRP4       -0.0523
     42 CZ2        -6.6478   -1.3927    0.7612 C.ar    4  TRP4       -0.0378
     43 CZ3        -5.7042   -0.3872    2.7591 C.ar    4  TRP4       -0.0611
     44 CH2        -6.6361   -1.2220    2.1483 C.ar    4  TRP4       -0.0598
     45 H           3.9644   -0.4903   -0.8383 H       2  VAL2        0.1495
     46 H           0.5753    1.0618   -1.0685 H       5  ASP5        0.1495
     47 H           1.4061   -2.8626    1.0856 H       3  LEU3        0.1495
     48 H          -1.1548   -0.3534   -1.2217 H       4  TRP4        0.1495
     49 HE1        -6.0188   -1.1896   -2.0198 H       4  TRP4        0.1653
     50 HA          5.3797    1.1788    0.1404 H       1  PRO1        0.0597
     51 HB1         5.9796    2.4936    1.9748 H       1  PRO1        0.0288
     52 HB2         5.8900    0.9628    2.8617 H       1  PRO1        0.0288
     53 HG1         4.3771    3.0180    3.7111 H       1  PRO1        0.0281
     54 HG2         3.6029    1.4292    3.5534 H       1  PRO1        0.0281
     55 HD1         2.1644    2.7375    2.1543 H       1  PRO1        0.0465
     56 HD2         3.5184    3.7394    1.5594 H       1  PRO1        0.0465
     57 HA          3.5442   -2.8377    0.9214 H       2  VAL2        0.0597
     58 HA          1.6135    3.5828    0.1173 H       5  ASP5        0.0598
     59 HB          5.5415   -3.4056   -0.3627 H       2  VAL2        0.0318
     60 HA         -0.2473   -2.3237   -1.3362 H       3  LEU3        0.0594
     61 HB1         0.7784    4.0426   -2.2024 H       5  ASP5        0.0348
     62 HB2         1.7805    2.7320   -2.8330 H       5  ASP5        0.0348
     63 HA         -1.8152    0.7547    1.4538 H       4  TRP4        0.0598
     64 HB1        -2.1413   -3.3911   -0.1197 H       3  LEU3        0.0290
     65 HB2        -1.0696   -3.8650    1.1854 H       3  LEU3        0.0290
     66 HG          0.2105   -5.3529   -0.3357 H       3  LEU3        0.0296
     67 HB1        -2.4329    1.9149   -1.3302 H       4  TRP4        0.0337
     68 HB2        -3.0770    2.5004    0.1916 H       4  TRP4        0.0337
     69 HG11        3.9294   -3.1046   -2.9438 H       2  VAL2        0.0233
     70 HG12        5.5893   -3.6735   -2.7698 H       2  VAL2        0.0233
     71 HG13        5.2022   -1.9918   -2.4006 H       2  VAL2        0.0233
     72 HG21        3.0960   -4.9646   -1.3489 H       2  VAL2        0.0233
     73 HG22        3.8895   -5.1735    0.2231 H       2  VAL2        0.0233
     74 HG23        4.7640   -5.5485   -1.2668 H       2  VAL2        0.0233
     75 HD11       -2.8103   -5.8398   -0.4322 H       3  LEU3        0.0232
     76 HD12       -1.7359   -6.2369    0.9219 H       3  LEU3        0.0232
     77 HD13       -1.5444   -7.0650   -0.6291 H       3  LEU3        0.0232
     78 HD21       -1.7983   -4.4791   -2.4784 H       3  LEU3        0.0232
     79 HD22       -0.7079   -5.8691   -2.6211 H       3  LEU3        0.0232
     80 HD23       -0.0402   -4.2445   -2.5116 H       3  LEU3        0.0232
     81 HD1        -4.0929    0.2716   -2.6674 H       4  TRP4        0.0810
     82 HE3        -4.0327    0.9465    2.4865 H       4  TRP4        0.0624
     83 HZ2        -7.3761   -2.0421    0.2875 H       4  TRP4        0.0638
     84 HZ3        -5.7095   -0.2663    3.8393 H       4  TRP4        0.0618
     85 HH2        -7.3659   -1.7480    2.7590 H       4  TRP4        0.0618
@<TRIPOS>BOND
     1     1    18    2
     2     2    19    2
     3     3    24    2
     4     4    29    2
     5     5    31    2
     6     6    35   ar
     7     7    35   ar
     8     8    14    1
     9     8    17    1
    10     8    19   am
    11     9    18   am
    12     9    20    1
    13    10    21    1
    14    10    29   am
    15    11    23    1
    16    11    24   am
    17    12    26    1
    18    12    31   am
    19    13    39   ar
    20    13    40   ar
    21    14    15    1
    22    14    18    1
    23    15    16    1
    24    16    17    1
    25    19    21    1
    26    20    22    1
    27    20    24    1
    28    21    25    1
    29    22    32    1
    30    22    33    1
    31    23    27    1
    32    23    31    1
    33    25    35    1
    34    26    29    1
    35    26    30    1
    36    27    28    1
    37    28    36    1
    38    28    37    1
    39    30    34    1
    40    34    38   ar
    41    34    39   ar
    42    38    40   ar
    43    38    41   ar
    44    40    42   ar
    45    41    43   ar
    46    42    44   ar
    47    43    44   ar
    48     9    45    1
    49    10    46    1
    50    11    47    1
    51    12    48    1
    52    13    49    1
    53    14    50    1
    54    15    51    1
    55    15    52    1
    56    16    53    1
    57    16    54    1
    58    17    55    1
    59    17    56    1
    60    20    57    1
    61    21    58    1
    62    22    59    1
    63    23    60    1
    64    25    61    1
    65    25    62    1
    66    26    63    1
    67    27    64    1
    68    27    65    1
    69    28    66    1
    70    30    67    1
    71    30    68    1
    72    32    69    1
    73    32    70    1
    74    32    71    1
    75    33    72    1
    76    33    73    1
    77    33    74    1
    78    36    75    1
    79    36    76    1
    80    36    77    1
    81    37    78    1
    82    37    79    1
    83    37    80    1
    84    39    81    1
    85    41    82    1
    86    42    83    1
    87    43    84    1
    88    44    85    1
@<TRIPOS>MOLECULE
16219006
 85 88 0 0 0
SMALL
GASTEIGER

@<TRIPOS>ATOM
      1 O           4.1585   -1.0018    2.2445 O.2     1  PRO1       -0.2738
      2 O           3.1807    1.0765   -1.3501 O.2     5  ASP5       -0.2735
      3 O           1.9887   -1.8741   -1.8050 O.2     2  VAL2       -0.2738
      4 O          -0.4537    2.9729    1.2651 O.2     4  TRP4       -0.2738
      5 O          -0.2975   -1.1453    1.7344 O.2     3  LEU3       -0.2738
      6 OD1         3.4957    4.7352   -1.0446 O.co2   5  ASP5       -0.5497
      7 OD2         3.1976    4.8166   -3.3040 O.co2   5  ASP5       -0.5497
      8 N           3.4550    1.8241    0.7690 N.am    1  PRO1       -0.2884
      9 N           4.1715   -1.1390   -0.0437 N.am    2  VAL2       -0.3022
     10 N           0.4730    1.9816   -0.5892 N.am    5  ASP5       -0.3021
     11 N           1.1920   -2.8556    0.0984 N.am    3  LEU3       -0.3025
     12 N          -1.1076   -0.2508   -0.2175 N.am    4  TRP4       -0.3022
     13 NE1        -5.4990   -0.6286   -1.3433 N.ar    4  TRP4       -0.3604
     14 CA          4.6677    1.0356    0.9767 C.3     1  PRO1        0.1023
     15 CB          5.3023    1.6384    2.2324 C.3     1  PRO1       -0.0243
     16 CG          4.1201    2.2440    2.9803 C.3     1  PRO1       -0.0350
     17 CD          3.2385    2.7620    1.8566 C.3     1  PRO1        0.0156
     18 C           4.3191   -0.4603    1.1520 C.2     1  PRO1        0.2342
     19 C           2.8677    1.8979   -0.4766 C.2     5  ASP5        0.2369
     20 CA          3.6218   -2.4883   -0.0965 C.3     2  VAL2        0.1017
     21 CA          1.6613    2.8502   -0.6703 C.3     5  ASP5        0.1047
     22 CB          4.5416   -3.4625   -0.8661 C.3     2  VAL2       -0.0197
     23 CA         -0.1870   -2.5269   -0.2525 C.3     3  LEU3        0.0996
     24 C           2.2096   -2.3742   -0.7035 C.2     2  VAL2        0.2342
     25 CB          1.7136    3.5168   -2.0343 C.3     5  ASP5        0.0138
     26 CA         -1.5515    0.9998    0.4062 C.3     4  TRP4        0.1034
     27 CB         -1.1326   -3.6676    0.1389 C.3     3  LEU3       -0.0236
     28 CG         -2.6059   -3.4424   -0.2597 C.3     3  LEU3       -0.0446
     29 C          -0.4252    2.0497    0.4536 C.2     4  TRP4        0.2343
     30 CB         -2.7483    1.6139   -0.3380 C.3     4  TRP4        0.0013
     31 C          -0.5255   -1.2468    0.5299 C.2     3  LEU3        0.2340
     32 CG1         4.8055   -3.0718   -2.3227 C.3     2  VAL2       -0.0605
     33 CG2         4.0057   -4.8966   -0.8005 C.3     2  VAL2       -0.0605
     34 CG         -3.9245    0.6859   -0.4648 C.ar    4  TRP4       -0.0201
     35 CG          2.9240    4.4393   -2.1292 C.2     5  ASP5        0.0440
     36 CD1        -2.7883   -3.2781   -1.7695 C.3     3  LEU3       -0.0626
     37 CD2        -3.4616   -4.6104    0.2353 C.3     3  LEU3       -0.0626
     38 CD2        -4.7261    0.1507    0.5965 C.ar    4  TRP4        0.0029
     39 CD1        -4.4409    0.1851   -1.6450 C.ar    4  TRP4        0.0060
     40 CE2        -5.6887   -0.6777    0.0175 C.ar    4  TRP4        0.0467
     41 CE3        -4.7169    0.2852    2.0003 C.ar    4  TRP4       -0.0523
     42 CZ2        -6.6334   -1.3860    0.7707 C.ar    4  TRP4       -0.0378
     43 CZ3        -5.6526   -0.4168    2.7687 C.ar    4  TRP4       -0.0611
     44 CH2        -6.5950   -1.2415    2.1602 C.ar    4  TRP4       -0.0598
     45 H           3.9768   -0.5366   -0.8537 H       2  VAL2        0.1495
     46 H           0.5508    1.1071   -1.0941 H       5  ASP5        0.1495
     47 H           1.3862   -2.8628    1.0971 H       3  LEU3        0.1495
     48 H          -1.1676   -0.3393   -1.2230 H       4  TRP4        0.1495
     49 HE1        -6.0607   -1.1264   -2.0190 H       4  TRP4        0.1653
     50 HA          5.3434    1.1400    0.1191 H       1  PRO1        0.0597
     51 HB1         5.9937    2.4398    1.9437 H       1  PRO1        0.0288
     52 HB2         5.8574    0.9182    2.8403 H       1  PRO1        0.0288
     53 HG1         4.4164    3.0310    3.6789 H       1  PRO1        0.0281
     54 HG2         3.5943    1.4646    3.5442 H       1  PRO1        0.0281
     55 HD1         2.1843    2.7960    2.1413 H       1  PRO1        0.0465
     56 HD2         3.5602    3.7561    1.5292 H       1  PRO1        0.0465
     57 HA          3.5277   -2.8662    0.9284 H       2  VAL2        0.0597
     58 HA          1.6063    3.6041    0.1178 H       5  ASP5        0.0598
     59 HB          5.5157   -3.4573   -0.3570 H       2  VAL2        0.0318
     60 HA         -0.2474   -2.3391   -1.3281 H       3  LEU3        0.0594
     61 HB1         0.8102    4.1166   -2.1988 H       5  ASP5        0.0348
     62 HB2         1.7614    2.7737   -2.8398 H       5  ASP5        0.0348
     63 HA         -1.8174    0.7799    1.4465 H       4  TRP4        0.0598
     64 HB1        -1.0797   -3.8266    1.2246 H       3  LEU3        0.0290
     65 HB2        -0.7728   -4.5984   -0.3204 H       3  LEU3        0.0290
     66 HG         -2.9737   -2.5355    0.2334 H       3  LEU3        0.0296
     67 HB1        -2.4343    1.9282   -1.3431 H       4  TRP4        0.0337
     68 HB2        -3.0756    2.5278    0.1747 H       4  TRP4        0.0337
     69 HG11        3.9026   -3.1445   -2.9361 H       2  VAL2        0.0233
     70 HG12        5.5520   -3.7414   -2.7649 H       2  VAL2        0.0233
     71 HG13        5.1957   -2.0525   -2.3998 H       2  VAL2        0.0233
     72 HG21        3.0524   -4.9962   -1.3301 H       2  VAL2        0.0233
     73 HG22        3.8528   -5.2094    0.2379 H       2  VAL2        0.0233
     74 HG23        4.7146   -5.5961   -1.2564 H       2  VAL2        0.0233
     75 HD11       -2.3502   -4.1198   -2.3164 H       3  LEU3        0.0232
     76 HD12       -2.3225   -2.3574   -2.1326 H       3  LEU3        0.0232
     77 HD13       -3.8506   -3.2235   -2.0301 H       3  LEU3        0.0232
     78 HD21       -3.1589   -5.5519   -0.2360 H       3  LEU3        0.0232
     79 HD22       -4.5190   -4.4409    0.0059 H       3  LEU3        0.0232
     80 HD23       -3.3712   -4.7278    1.3202 H       3  LEU3        0.0232
     81 HD1        -4.1435    0.3413   -2.6738 H       4  TRP4        0.0810
     82 HE3        -3.9877    0.9239    2.4907 H       4  TRP4        0.0624
     83 HZ2        -7.3706   -2.0265    0.2993 H       4  TRP4        0.0638
     84 HZ3        -5.6372   -0.3155    3.8510 H       4  TRP4        0.0618
     85 HH2        -7.3124   -1.7795    2.7752 H       4  TRP4        0.0618
@<TRIPOS>BOND
     1     1    18    2
     2     2    19    2
     3     3    24    2
     4     4    29    2
     5     5    31    2
     6     6    35   ar
     7     7    35   ar
     8     8    14    1
     9     8    17    1
    10     8    19   am
    11     9    18   am
    12     9    20    1
    13    10    21    1
    14    10    29   am
    15    11    23    1
    16    11    24   am
    17    12    26    1
    18    12    31   am
    19    13    39   ar
    20    13    40   ar
    21    14    15    1
    22    14    18    1
    23    15    16    1
    24    16    17    1
    25    19    21    1
    26    20    22    1
    27    20    24    1
    28    21    25    1
    29    22    32    1
    30    22    33    1
    31    23    27    1
    32    23    31    1
    33    25    35    1
    34    26    29    1
    35    26    30    1
    36    27    28    1
    37    28    36    1
    38    28    37    1
    39    30    34    1
    40    34    38   ar
    41    34    39   ar
    42    38    40   ar
    43    38    41   ar
    44    40    42   ar
    45    41    43   ar
    46    42    44   ar
    47    43    44   ar
    48     9    45    1
    49    10    46    1
    50    11    47    1
    51    12    48    1
    52    13    49    1
    53    14    50    1
    54    15    51    1
    55    15    52    1
    56    16    53    1
    57    16    54    1
    58    17    55    1
    59    17    56    1
    60    20    57    1
    61    21    58    1
    62    22    59    1
    63    23    60    1
    64    25    61    1
    65    25    62    1
    66    26    63    1
    67    27    64    1
    68    27    65    1
    69    28    66    1
    70    30    67    1
    71    30    68    1
    72    32    69    1
    73    32    70    1
    74    32    71    1
    75    33    72    1
    76    33    73    1
    77    33    74    1
    78    36    75    1
    79    36    76    1
    80    36    77    1
    81    37    78    1
    82    37    79    1
    83    37    80    1
    84    39    81    1
    85    41    82    1
    86    42    83    1
    87    43    84    1
    88    44    85    1
@<TRIPOS>MOLECULE
16219006
 85 88 0 0 0
SMALL
GASTEIGER

@<TRIPOS>ATOM
      1 O           4.1257   -1.0934    2.2518 O.2     1  PRO1       -0.2738
      2 O           3.0217    0.9162   -1.3296 O.2     5  ASP5       -0.2735
      3 O           2.0702   -2.4272   -1.9168 O.2     2  VAL2       -0.2738
      4 O          -0.4682    3.0047    1.2475 O.2     4  TRP4       -0.2738
      5 O          -0.3097   -1.0292    1.7359 O.2     3  LEU3       -0.2738
      6 OD1         3.7715    4.3543   -1.2179 O.co2   5  ASP5       -0.5497
      7 OD2         2.6118    5.5289   -2.7905 O.co2   5  ASP5       -0.5497
      8 N           3.3970    1.7301    0.7543 N.am    1  PRO1       -0.2884
      9 N           4.1017   -1.2568   -0.0318 N.am    2  VAL2       -0.3022
     10 N           0.4147    1.9996   -0.6209 N.am    5  ASP5       -0.3021
     11 N           1.2093   -2.7309    0.1826 N.am    3  LEU3       -0.3025
     12 N          -1.1729   -0.2013   -0.2188 N.am    4  TRP4       -0.3022
     13 NE1        -5.7009   -0.5518    0.0431 N.ar    4  TRP4       -0.3604
     14 CA          4.6053    0.9316    0.9475 C.3     1  PRO1        0.1023
     15 CB          5.2793    1.5497    2.1765 C.3     1  PRO1       -0.0243
     16 CG          4.1270    2.1972    2.9347 C.3     1  PRO1       -0.0350
     17 CD          3.2354    2.7075    1.8160 C.3     1  PRO1        0.0156
     18 C           4.2623   -0.5627    1.1510 C.2     1  PRO1        0.2342
     19 C           2.7884    1.7915   -0.4832 C.2     5  ASP5        0.2369
     20 CA          3.6485   -2.6430   -0.0715 C.3     2  VAL2        0.1017
     21 CA          1.6399    2.8149   -0.6915 C.3     5  ASP5        0.1047
     22 CB          4.6073   -3.5350   -0.8898 C.3     2  VAL2       -0.0197
     23 CA         -0.1613   -2.4383   -0.2260 C.3     3  LEU3        0.0996
     24 C           2.2486   -2.6058   -0.7132 C.2     2  VAL2        0.2342
     25 CB          1.7284    3.4838   -2.0529 C.3     5  ASP5        0.0138
     26 CA         -1.6169    1.0583    0.3876 C.3     4  TRP4        0.1034
     27 CB         -1.0896   -3.6003    0.1446 C.3     3  LEU3       -0.0236
     28 CG         -2.5543   -3.4278   -0.3065 C.3     3  LEU3       -0.0446
     29 C          -0.4720    2.0852    0.4323 C.2     4  TRP4        0.2343
     30 CB         -2.7939    1.6767   -0.3808 C.3     4  TRP4        0.0013
     31 C          -0.5457   -1.1622    0.5356 C.2     3  LEU3        0.2340
     32 CG1         4.0800   -4.9731   -0.9820 C.3     2  VAL2       -0.0605
     33 CG2         6.0078   -3.5595   -0.2664 C.3     2  VAL2       -0.0605
     34 CG         -3.9726    0.7516   -0.4926 C.ar    4  TRP4       -0.0201
     35 CG          2.8110    4.5541   -2.0126 C.2     5  ASP5        0.0440
     36 CD1        -2.6896   -3.3250   -1.8264 C.3     3  LEU3       -0.0626
     37 CD2        -3.3954   -4.6011    0.2035 C.3     3  LEU3       -0.0626
     38 CD2        -4.5011    0.1697   -1.6906 C.ar    4  TRP4        0.0029
     39 CD1        -4.7483    0.2871    0.5522 C.ar    4  TRP4        0.0060
     40 CE2        -5.5757   -0.6410   -1.3231 C.ar    4  TRP4        0.0467
     41 CE3        -4.1618    0.2533   -3.0570 C.ar    4  TRP4       -0.0523
     42 CZ2        -6.3273   -1.3725   -2.2508 C.ar    4  TRP4       -0.0378
     43 CZ3        -4.9032   -0.4703   -3.9981 C.ar    4  TRP4       -0.0611
     44 CH2        -5.9698   -1.2711   -3.5983 C.ar    4  TRP4       -0.0598
     45 H           3.8976   -0.6727   -0.8519 H       2  VAL2        0.1495
     46 H           0.4555    1.1266   -1.1315 H       5  ASP5        0.1495
     47 H           1.4231   -2.5459    1.1616 H       3  LEU3        0.1495
     48 H          -1.3187   -0.3429   -1.2110 H       4  TRP4        0.1495
     49 HE1        -6.3983   -1.0386    0.5879 H       4  TRP4        0.1653
     50 HA          5.2618    1.0215    0.0735 H       1  PRO1        0.0597
     51 HB1         5.9805    2.3304    1.8548 H       1  PRO1        0.0288
     52 HB2         5.8342    0.8334    2.7900 H       1  PRO1        0.0288
     53 HG1         4.4539    2.9936    3.6080 H       1  PRO1        0.0281
     54 HG2         3.5971    1.4416    3.5266 H       1  PRO1        0.0281
     55 HD1         2.1894    2.7817    2.1233 H       1  PRO1        0.0465
     56 HD2         3.5786    3.6812    1.4518 H       1  PRO1        0.0465
     57 HA          3.5684   -3.0391    0.9479 H       2  VAL2        0.0597
     58 HA          1.6148    3.5683    0.0984 H       5  ASP5        0.0598
     59 HB          4.6992   -3.1394   -1.9099 H       2  VAL2        0.0318
     60 HA         -0.1889   -2.2506   -1.3027 H       3  LEU3        0.0594
     61 HB1         0.7696    3.9526   -2.3067 H       5  ASP5        0.0348
     62 HB2         1.9678    2.7720   -2.8507 H       5  ASP5        0.0348
     63 HA         -1.9040    0.8506    1.4261 H       4  TRP4        0.0598
     64 HB1        -1.0702   -3.7435    1.2343 H       3  LEU3        0.0290
     65 HB2        -0.6876   -4.5266   -0.2875 H       3  LEU3        0.0290
     66 HG         -2.9628   -2.5138    0.1404 H       3  LEU3        0.0296
     67 HB1        -2.4652    1.9776   -1.3839 H       4  TRP4        0.0337
     68 HB2        -3.1172    2.6000    0.1182 H       4  TRP4        0.0337
     69 HG11        3.9352   -5.4059    0.0145 H       2  VAL2        0.0233
     70 HG12        4.7826   -5.6109   -1.5279 H       2  VAL2        0.0233
     71 HG13        3.1242   -5.0169   -1.5116 H       2  VAL2        0.0233
     72 HG21        5.9750   -3.9237    0.7670 H       2  VAL2        0.0233
     73 HG22        6.4598   -2.5617   -0.2612 H       2  VAL2        0.0233
     74 HG23        6.6739   -4.2178   -0.8340 H       2  VAL2        0.0233
     75 HD11       -2.2132   -4.1758   -2.3256 H       3  LEU3        0.0232
     76 HD12       -2.2336   -2.4076   -2.2088 H       3  LEU3        0.0232
     77 HD13       -3.7431   -3.3101   -2.1227 H       3  LEU3        0.0232
     78 HD21       -3.0559   -5.5497   -0.2254 H       3  LEU3        0.0232
     79 HD22       -4.4495   -4.4668   -0.0615 H       3  LEU3        0.0232
     80 HD23       -3.3345   -4.6796    1.2942 H       3  LEU3        0.0232
     81 HD1        -4.6916    0.4745    1.6166 H       4  TRP4        0.0810
     82 HE3        -3.3371    0.8792   -3.3863 H       4  TRP4        0.0624
     83 HZ2        -7.1588   -1.9967   -1.9418 H       4  TRP4        0.0638
     84 HZ3        -4.6429   -0.4010   -5.0518 H       4  TRP4        0.0618
     85 HH2        -6.5345   -1.8245   -4.3451 H       4  TRP4        0.0618
@<TRIPOS>BOND
     1     1    18    2
     2     2    19    2
     3     3    24    2
     4     4    29    2
     5     5    31    2
     6     6    35   ar
     7     7    35   ar
     8     8    14    1
     9     8    17    1
    10     8    19   am
    11     9    18   am
    12     9    20    1
    13    10    21    1
    14    10    29   am
    15    11    23    1
    16    11    24   am
    17    12    26    1
    18    12    31   am
    19    13    39   ar
    20    13    40   ar
    21    14    15    1
    22    14    18    1
    23    15    16    1
    24    16    17    1
    25    19    21    1
    26    20    22    1
    27    20    24    1
    28    21    25    1
    29    22    32    1
    30    22    33    1
    31    23    27    1
    32    23    31    1
    33    25    35    1
    34    26    29    1
    35    26    30    1
    36    27    28    1
    37    28    36    1
    38    28    37    1
    39    30    34    1
    40    34    38   ar
    41    34    39   ar
    42    38    40   ar
    43    38    41   ar
    44    40    42   ar
    45    41    43   ar
    46    42    44   ar
    47    43    44   ar
    48     9    45    1
    49    10    46    1
    50    11    47    1
    51    12    48    1
    52    13    49    1
    53    14    50    1
    54    15    51    1
    55    15    52    1
    56    16    53    1
    57    16    54    1
    58    17    55    1
    59    17    56    1
    60    20    57    1
    61    21    58    1
    62    22    59    1
    63    23    60    1
    64    25    61    1
    65    25    62    1
    66    26    63    1
    67    27    64    1
    68    27    65    1
    69    28    66    1
    70    30    67    1
    71    30    68    1
    72    32    69    1
    73    32    70    1
    74    32    71    1
    75    33    72    1
    76    33    73    1
    77    33    74    1
    78    36    75    1
    79    36    76    1
    80    36    77    1
    81    37    78    1
    82    37    79    1
    83    37    80    1
    84    39    81    1
    85    41    82    1
    86    42    83    1
    87    43    84    1
    88    44    85    1
@<TRIPOS>MOLECULE
16219006
 85 88 0 0 0
SMALL
GASTEIGER

@<TRIPOS>ATOM
      1 O           4.0293   -0.9511    2.2539 O.2     1  PRO1       -0.2738
      2 O           3.3105    1.1889   -1.4294 O.2     5  ASP5       -0.2735
      3 O           2.1161   -2.0517   -1.8380 O.2     2  VAL2       -0.2738
      4 O          -0.3542    2.8399    1.4084 O.2     4  TRP4       -0.2738
      5 O          -0.2714   -1.1263    1.7448 O.2     3  LEU3       -0.2738
      6 OD1        -0.6940    3.6533   -2.6399 O.co2   5  ASP5       -0.5497
      7 OD2         0.5228    5.4498   -1.9063 O.co2   5  ASP5       -0.5497
      8 N           3.4644    1.8557    0.7200 N.am    1  PRO1       -0.2884
      9 N           4.1977   -1.1727   -0.0194 N.am    2  VAL2       -0.3022
     10 N           0.5053    1.8613   -0.4858 N.am    5  ASP5       -0.3021
     11 N           1.2357   -2.7972    0.1445 N.am    3  LEU3       -0.3025
     12 N          -1.1694   -0.2642   -0.1834 N.am    4  TRP4       -0.3022
     13 NE1        -5.6785   -0.5617    0.0543 N.ar    4  TRP4       -0.3604
     14 CA          4.6499    1.0379    0.9609 C.3     1  PRO1        0.1023
     15 CB          5.2662    1.6434    2.2225 C.3     1  PRO1       -0.0243
     16 CG          4.0662    2.2139    2.9718 C.3     1  PRO1       -0.0350
     17 CD          3.1563    2.7084    1.8590 C.3     1  PRO1        0.0156
     18 C           4.2677   -0.4496    1.1571 C.2     1  PRO1        0.2342
     19 C           2.8829    1.9222   -0.5277 C.2     5  ASP5        0.2369
     20 CA          3.6741   -2.5384   -0.0379 C.3     2  VAL2        0.1017
     21 CA          1.6109    2.7890   -0.7028 C.3     5  ASP5        0.1047
     22 CB          4.5737   -3.4959   -0.8525 C.3     2  VAL2       -0.0197
     23 CA         -0.1369   -2.4860   -0.2510 C.3     3  LEU3        0.0996
     24 C           2.2798   -2.4358   -0.6809 C.2     2  VAL2        0.2342
     25 CB          1.5753    3.3609   -2.1129 C.3     5  ASP5        0.0138
     26 CA         -1.5956    0.9966    0.4379 C.3     4  TRP4        0.1034
     27 CB         -1.0734   -3.6471    0.1016 C.3     3  LEU3       -0.0236
     28 CG         -2.5430   -3.4350   -0.3154 C.3     3  LEU3       -0.0446
     29 C          -0.4089    1.9750    0.5361 C.2     4  TRP4        0.2343
     30 CB         -2.7449    1.6452   -0.3493 C.3     4  TRP4        0.0013
     31 C          -0.5186   -1.2289    0.5433 C.2     3  LEU3        0.2340
     32 CG1         3.9652   -4.9036   -0.9269 C.3     2  VAL2       -0.0605
     33 CG2         5.9756   -3.5974   -0.2408 C.3     2  VAL2       -0.0605
     34 CG         -3.9430    0.7376   -0.4701 C.ar    4  TRP4       -0.0201
     35 CG          0.3452    4.2410   -2.2207 C.2     5  ASP5        0.0440
     36 CD1        -2.7023   -3.2813   -1.8284 C.3     3  LEU3       -0.0626
     37 CD2        -3.3970   -4.6059    0.1754 C.3     3  LEU3       -0.0626
     38 CD2        -4.4828    0.1764   -1.6742 C.ar    4  TRP4        0.0029
     39 CD1        -4.7198    0.2648    0.5711 C.ar    4  TRP4        0.0060
     40 CE2        -5.5577   -0.6379   -1.3128 C.ar    4  TRP4        0.0467
     41 CE3        -4.1513    0.2790   -3.0413 C.ar    4  TRP4       -0.0523
     42 CZ2        -6.3130   -1.3591   -2.2463 C.ar    4  TRP4       -0.0378
     43 CZ3        -4.8968   -0.4345   -3.9882 C.ar    4  TRP4       -0.0611
     44 CH2        -5.9605   -1.2426   -3.5938 C.ar    4  TRP4       -0.0598
     45 H           4.0389   -0.6116   -0.8634 H       2  VAL2        0.1495
     46 H           0.3219    1.2031   -1.2304 H       5  ASP5        0.1495
     47 H           1.4132   -2.7227    1.1442 H       3  LEU3        0.1495
     48 H          -1.2686   -0.3541   -1.1875 H       4  TRP4        0.1495
     49 HE1        -6.3766   -1.0507    0.5953 H       4  TRP4        0.1653
     50 HA          5.3468    1.1125    0.1172 H       1  PRO1        0.0597
     51 HB1         5.9407    2.4622    1.9438 H       1  PRO1        0.0288
     52 HB2         5.8333    0.9277    2.8244 H       1  PRO1        0.0288
     53 HG1         4.3438    3.0088    3.6695 H       1  PRO1        0.0281
     54 HG2         3.5676    1.4218    3.5413 H       1  PRO1        0.0281
     55 HD1         2.1001    2.6343    2.1295 H       1  PRO1        0.0465
     56 HD2         3.3906    3.7408    1.5827 H       1  PRO1        0.0465
     57 HA          3.5806   -2.9166    0.9866 H       2  VAL2        0.0597
     58 HA          1.5802    3.5955    0.0341 H       5  ASP5        0.0598
     59 HB          4.6787   -3.1176   -1.8778 H       2  VAL2        0.0318
     60 HA         -0.1674   -2.2781   -1.3238 H       3  LEU3        0.0594
     61 HB1         1.5384    2.5759   -2.8775 H       5  ASP5        0.0348
     62 HB2         2.4741    3.9588   -2.3080 H       5  ASP5        0.0348
     63 HA         -1.9102    0.7712    1.4646 H       4  TRP4        0.0598
     64 HB1        -1.0351   -3.8252    1.1851 H       3  LEU3        0.0290
     65 HB2        -0.6929   -4.5644   -0.3680 H       3  LEU3        0.0290
     66 HG         -2.9270   -2.5289    0.1673 H       3  LEU3        0.0296
     67 HB1        -2.3976    1.9258   -1.3504 H       4  TRP4        0.0337
     68 HB2        -3.0533    2.5775    0.1402 H       4  TRP4        0.0337
     69 HG11        3.8088   -5.3212    0.0740 H       2  VAL2        0.0233
     70 HG12        4.6241   -5.5844   -1.4767 H       2  VAL2        0.0233
     71 HG13        3.0015   -4.8979   -1.4459 H       2  VAL2        0.0233
     72 HG21        5.9322   -3.9634    0.7909 H       2  VAL2        0.0233
     73 HG22        6.4808   -2.6269   -0.2378 H       2  VAL2        0.0233
     74 HG23        6.5997   -4.2903   -0.8163 H       2  VAL2        0.0233
     75 HD11       -2.2511   -4.1236   -2.3629 H       3  LEU3        0.0232
     76 HD12       -2.2358   -2.3604   -2.1897 H       3  LEU3        0.0232
     77 HD13       -3.7602   -3.2374   -2.1048 H       3  LEU3        0.0232
     78 HD21       -3.0880   -5.5470   -0.2918 H       3  LEU3        0.0232
     79 HD22       -4.4536   -4.4399   -0.0610 H       3  LEU3        0.0232
     80 HD23       -3.3139   -4.7207    1.2612 H       3  LEU3        0.0232
     81 HD1        -4.6562    0.4384    1.6372 H       4  TRP4        0.0810
     82 HE3        -3.3306    0.9168   -3.3633 H       4  TRP4        0.0624
     83 HZ2        -7.1432   -1.9864   -1.9408 H       4  TRP4        0.0638
     84 HZ3        -4.6411   -0.3476   -5.0413 H       4  TRP4        0.0618
     85 HH2        -6.5277   -1.7865   -4.3451 H       4  TRP4        0.0618
@<TRIPOS>BOND
     1     1    18    2
     2     2    19    2
     3     3    24    2
     4     4    29    2
     5     5    31    2
     6     6    35   ar
     7     7    35   ar
     8     8    14    1
     9     8    17    1
    10     8    19   am
    11     9    18   am
    12     9    20    1
    13    10    21    1
    14    10    29   am
    15    11    23    1
    16    11    24   am
    17    12    26    1
    18    12    31   am
    19    13    39   ar
    20    13    40   ar
    21    14    15    1
    22    14    18    1
    23    15    16    1
    24    16    17    1
    25    19    21    1
    26    20    22    1
    27    20    24    1
    28    21    25    1
    29    22    32    1
    30    22    33    1
    31    23    27    1
    32    23    31    1
    33    25    35    1
    34    26    29    1
    35    26    30    1
    36    27    28    1
    37    28    36    1
    38    28    37    1
    39    30    34    1
    40    34    38   ar
    41    34    39   ar
    42    38    40   ar
    43    38    41   ar
    44    40    42   ar
    45    41    43   ar
    46    42    44   ar
    47    43    44   ar
    48     9    45    1
    49    10    46    1
    50    11    47    1
    51    12    48    1
    52    13    49    1
    53    14    50    1
    54    15    51    1
    55    15    52    1
    56    16    53    1
    57    16    54    1
    58    17    55    1
    59    17    56    1
    60    20    57    1
    61    21    58    1
    62    22    59    1
    63    23    60    1
    64    25    61    1
    65    25    62    1
    66    26    63    1
    67    27    64    1
    68    27    65    1
    69    28    66    1
    70    30    67    1
    71    30    68    1
    72    32    69    1
    73    32    70    1
    74    32    71    1
    75    33    72    1
    76    33    73    1
    77    33    74    1
    78    36    75    1
    79    36    76    1
    80    36    77    1
    81    37    78    1
    82    37    79    1
    83    37    80    1
    84    39    81    1
    85    41    82    1
    86    42    83    1
    87    43    84    1
    88    44    85    1
@<TRIPOS>MOLECULE
16219006
 85 88 0 0 0
SMALL
GASTEIGER

@<TRIPOS>ATOM
      1 O           4.1595   -1.0570    2.2536 O.2     1  PRO1       -0.2738
      2 O           3.0771    0.9638   -1.3327 O.2     5  ASP5       -0.2735
      3 O           2.1429   -2.3169   -1.9198 O.2     2  VAL2       -0.2738
      4 O          -0.5282    2.9852    1.2259 O.2     4  TRP4       -0.2738
      5 O          -0.2891   -1.1205    1.7371 O.2     3  LEU3       -0.2738
      6 OD1         2.9204    5.0081   -3.2737 O.co2   5  ASP5       -0.5497
      7 OD2         3.5746    4.5180   -1.1454 O.co2   5  ASP5       -0.5497
      8 N           3.3879    1.7587    0.7665 N.am    1  PRO1       -0.2884
      9 N           4.1635   -1.2019   -0.0309 N.am    2  VAL2       -0.3022
     10 N           0.4065    1.9470   -0.5975 N.am    5  ASP5       -0.3021
     11 N           1.2829   -2.7598    0.1537 N.am    3  LEU3       -0.3025
     12 N          -1.1502   -0.2666   -0.2073 N.am    4  TRP4       -0.3022
     13 NE1        -5.4977   -1.0048   -0.0480 N.ar    4  TRP4       -0.3604
     14 CA          4.6127    0.9882    0.9728 C.3     1  PRO1        0.1023
     15 CB          5.2494    1.6111    2.2188 C.3     1  PRO1       -0.0243
     16 CG          4.0659    2.2126    2.9665 C.3     1  PRO1       -0.0350
     17 CD          3.1768    2.7130    1.8403 C.3     1  PRO1        0.0156
     18 C           4.2983   -0.5142    1.1594 C.2     1  PRO1        0.2342
     19 C           2.7943    1.8165   -0.4790 C.2     5  ASP5        0.2369
     20 CA          3.7196   -2.5905   -0.0830 C.3     2  VAL2        0.1017
     21 CA          1.6088    2.7945   -0.6893 C.3     5  ASP5        0.1047
     22 CB          4.6819   -3.4693   -0.9105 C.3     2  VAL2       -0.0197
     23 CA         -0.0846   -2.4774   -0.2564 C.3     3  LEU3        0.0996
     24 C           2.3231   -2.5545   -0.7269 C.2     2  VAL2        0.2342
     25 CB          1.6685    3.4387   -2.0636 C.3     5  ASP5        0.0138
     26 CA         -1.6148    0.9785    0.4183 C.3     4  TRP4        0.1034
     27 CB         -1.0346   -3.6323    0.0800 C.3     3  LEU3       -0.0236
     28 CG         -0.7159   -4.9555   -0.6466 C.3     3  LEU3       -0.0446
     29 C          -0.4976    2.0420    0.4375 C.2     4  TRP4        0.2343
     30 CB         -2.8327    1.5582   -0.3147 C.3     4  TRP4        0.0013
     31 C          -0.5025   -1.2274    0.5306 C.2     3  LEU3        0.2340
     32 CG1         4.1607   -4.9090   -1.0151 C.3     2  VAL2       -0.0605
     33 CG2         6.0820   -3.4911   -0.2886 C.3     2  VAL2       -0.0605
     34 CG         -4.0429    0.6593   -0.3740 C.ar    4  TRP4       -0.0201
     35 CG          2.8387    4.4092   -2.1638 C.2     5  ASP5        0.0440
     36 CD1        -1.6872   -6.0453   -0.1845 C.3     3  LEU3       -0.0626
     37 CD2        -0.7823   -4.8211   -2.1686 C.3     3  LEU3       -0.0626
     38 CD2        -5.2002    0.8799   -1.1927 C.ar    4  TRP4        0.0029
     39 CD1        -4.2821   -0.5058    0.3320 C.ar    4  TRP4        0.0060
     40 CE2        -6.0840   -0.1771   -0.9723 C.ar    4  TRP4        0.0467
     41 CE3        -5.5767    1.8899   -2.1024 C.ar    4  TRP4       -0.0523
     42 CZ2        -7.3203   -0.2808   -1.6211 C.ar    4  TRP4       -0.0378
     43 CZ3        -6.8129    1.8063   -2.7542 C.ar    4  TRP4       -0.0611
     44 CH2        -7.6694    0.7343   -2.5169 C.ar    4  TRP4       -0.0598
     45 H           3.9596   -0.6149   -0.8491 H       2  VAL2        0.1495
     46 H           0.4713    1.0670   -1.0930 H       5  ASP5        0.1495
     47 H           1.4843   -2.6125    1.1415 H       3  LEU3        0.1495
     48 H          -1.2339   -0.3620   -1.2124 H       4  TRP4        0.1495
     49 HE1        -5.9143   -1.8537    0.3082 H       4  TRP4        0.1653
     50 HA          5.2815    1.1002    0.1100 H       1  PRO1        0.0597
     51 HB1         5.9307    2.4168    1.9176 H       1  PRO1        0.0288
     52 HB2         5.8165    0.9040    2.8312 H       1  PRO1        0.0288
     53 HG1         4.3578    3.0085    3.6574 H       1  PRO1        0.0281
     54 HG2         3.5490    1.4331    3.5390 H       1  PRO1        0.0281
     55 HD1         2.1241    2.7498    2.1298 H       1  PRO1        0.0465
     56 HD2         3.4958    3.7026    1.4973 H       1  PRO1        0.0465
     57 HA          3.6420   -2.9962    0.9321 H       2  VAL2        0.0597
     58 HA          1.5684    3.5613    0.0872 H       5  ASP5        0.0598
     59 HB          4.7696   -3.0645   -1.9276 H       2  VAL2        0.0318
     60 HA         -0.1287   -2.2490   -1.3256 H       3  LEU3        0.0594
     61 HB1         0.7423    3.9946   -2.2579 H       5  ASP5        0.0348
     62 HB2         1.7678    2.6865   -2.8560 H       5  ASP5        0.0348
     63 HA         -1.8648    0.7640    1.4650 H       4  TRP4        0.0598
     64 HB1        -2.0637   -3.3272   -0.1543 H       3  LEU3        0.0290
     65 HB2        -1.0138   -3.8135    1.1636 H       3  LEU3        0.0290
     66 HG          0.2968   -5.2777   -0.3751 H       3  LEU3        0.0296
     67 HB1        -2.5455    1.8138   -1.3442 H       4  TRP4        0.0337
     68 HB2        -3.1325    2.4996    0.1647 H       4  TRP4        0.0337
     69 HG11        4.0174   -5.3514   -0.0225 H       2  VAL2        0.0233
     70 HG12        4.8665   -5.5398   -1.5670 H       2  VAL2        0.0233
     71 HG13        3.2043   -4.9528   -1.5456 H       2  VAL2        0.0233
     72 HG21        6.0523   -3.8645    0.7414 H       2  VAL2        0.0233
     73 HG22        6.5280   -2.4911   -0.2751 H       2  VAL2        0.0233
     74 HG23        6.7522   -4.1404   -0.8628 H       2  VAL2        0.0233
     75 HD11       -2.7218   -5.7897   -0.4392 H       3  LEU3        0.0232
     76 HD12       -1.6287   -6.1850    0.9000 H       3  LEU3        0.0232
     77 HD13       -1.4494   -7.0042   -0.6570 H       3  LEU3        0.0232
     78 HD21       -1.7514   -4.4249   -2.4907 H       3  LEU3        0.0232
     79 HD22       -0.6377   -5.7940   -2.6514 H       3  LEU3        0.0232
     80 HD23        0.0006   -4.1572   -2.5460 H       3  LEU3        0.0232
     81 HD1        -3.6867   -1.0285    1.0701 H       4  TRP4        0.0810
     82 HE3        -4.9168    2.7314   -2.2943 H       4  TRP4        0.0624
     83 HZ2        -7.9905   -1.1136   -1.4362 H       4  TRP4        0.0638
     84 HZ3        -7.1029    2.5883   -3.4506 H       4  TRP4        0.0618
     85 HH2        -8.6248    0.6868   -3.0335 H       4  TRP4        0.0618
@<TRIPOS>BOND
     1     1    18    2
     2     2    19    2
     3     3    24    2
     4     4    29    2
     5     5    31    2
     6     6    35   ar
     7     7    35   ar
     8     8    14    1
     9     8    17    1
    10     8    19   am
    11     9    18   am
    12     9    20    1
    13    10    21    1
    14    10    29   am
    15    11    23    1
    16    11    24   am
    17    12    26    1
    18    12    31   am
    19    13    39   ar
    20    13    40   ar
    21    14    15    1
    22    14    18    1
    23    15    16    1
    24    16    17    1
    25    19    21    1
    26    20    22    1
    27    20    24    1
    28    21    25    1
    29    22    32    1
    30    22    33    1
    31    23    27    1
    32    23    31    1
    33    25    35    1
    34    26    29    1
    35    26    30    1
    36    27    28    1
    37    28    36    1
    38    28    37    1
    39    30    34    1
    40    34    38   ar
    41    34    39   ar
    42    38    40   ar
    43    38    41   ar
    44    40    42   ar
    45    41    43   ar
    46    42    44   ar
    47    43    44   ar
    48     9    45    1
    49    10    46    1
    50    11    47    1
    51    12    48    1
    52    13    49    1
    53    14    50    1
    54    15    51    1
    55    15    52    1
    56    16    53    1
    57    16    54    1
    58    17    55    1
    59    17    56    1
    60    20    57    1
    61    21    58    1
    62    22    59    1
    63    23    60    1
    64    25    61    1
    65    25    62    1
    66    26    63    1
    67    27    64    1
    68    27    65    1
    69    28    66    1
    70    30    67    1
    71    30    68    1
    72    32    69    1
    73    32    70    1
    74    32    71    1
    75    33    72    1
    76    33    73    1
    77    33    74    1
    78    36    75    1
    79    36    76    1
    80    36    77    1
    81    37    78    1
    82    37    79    1
    83    37    80    1
    84    39    81    1
    85    41    82    1
    86    42    83    1
    87    43    84    1
    88    44    85    1
@<TRIPOS>MOLECULE
16219006
 85 88 0 0 0
SMALL
GASTEIGER

@<TRIPOS>ATOM
      1 O           4.1499   -1.0494    2.2394 O.2     1  PRO1       -0.2738
      2 O           2.8343    0.8273   -1.2519 O.2     5  ASP5       -0.2735
      3 O           2.1121   -2.4872   -1.9349 O.2     2  VAL2       -0.2738
      4 O          -0.4966    2.9240    1.3155 O.2     4  TRP4       -0.2738
      5 O          -0.3034   -1.0419    1.7179 O.2     3  LEU3       -0.2738
      6 OD1         2.6221    5.5642   -1.3565 O.co2   5  ASP5       -0.5497
      7 OD2         4.0430    3.9091   -2.0231 O.co2   5  ASP5       -0.5497
      8 N           3.3696    1.7641    0.7450 N.am    1  PRO1       -0.2884
      9 N           4.1127   -1.2350   -0.0428 N.am    2  VAL2       -0.3022
     10 N           0.3212    2.0257   -0.6384 N.am    5  ASP5       -0.3021
     11 N           1.2421   -2.7094    0.1703 N.am    3  LEU3       -0.3025
     12 N          -1.2164   -0.2313   -0.2218 N.am    4  TRP4       -0.3022
     13 NE1        -5.7470   -0.5938    0.0227 N.ar    4  TRP4       -0.3604
     14 CA          4.5865    0.9706    0.9085 C.3     1  PRO1        0.1023
     15 CB          5.2932    1.6025    2.1131 C.3     1  PRO1       -0.0243
     16 CG          4.1625    2.2613    2.8940 C.3     1  PRO1       -0.0350
     17 CD          3.2426    2.7608    1.7940 C.3     1  PRO1        0.0156
     18 C           4.2696   -0.5269    1.1322 C.2     1  PRO1        0.2342
     19 C           2.6797    1.7576   -0.4471 C.2     5  ASP5        0.2369
     20 CA          3.6809   -2.6285   -0.0747 C.3     2  VAL2        0.1017
     21 CA          1.5651    2.8129   -0.6665 C.3     5  ASP5        0.1047
     22 CB          4.6583   -3.5058   -0.8862 C.3     2  VAL2       -0.0197
     23 CA         -0.1225   -2.4313   -0.2562 C.3     3  LEU3        0.0996
     24 C           2.2860   -2.6183   -0.7243 C.2     2  VAL2        0.2342
     25 CB          1.7248    3.4931   -2.0152 C.3     5  ASP5        0.0138
     26 CA         -1.6684    1.0201    0.3972 C.3     4  TRP4        0.1034
     27 CB         -1.0738   -3.5867    0.0762 C.3     3  LEU3       -0.0236
     28 CG         -0.7466   -4.9129   -0.6424 C.3     3  LEU3       -0.0446
     29 C          -0.5254    2.0497    0.4520 C.2     4  TRP4        0.2343
     30 CB         -2.8452    1.6450   -0.3650 C.3     4  TRP4        0.0013
     31 C          -0.5456   -1.1752    0.5190 C.2     3  LEU3        0.2340
     32 CG1         4.1552   -4.9538   -0.9761 C.3     2  VAL2       -0.0605
     33 CG2         6.0560   -3.5036   -0.2583 C.3     2  VAL2       -0.0605
     34 CG         -4.0162    0.7140   -0.4912 C.ar    4  TRP4       -0.0201
     35 CG          2.9124    4.4136   -1.7863 C.2     5  ASP5        0.0440
     36 CD1        -1.7046   -6.0093   -0.1687 C.3     3  LEU3       -0.0626
     37 CD2        -0.8232   -4.7903   -2.1652 C.3     3  LEU3       -0.0626
     38 CD2        -4.5075    0.1066   -1.6919 C.ar    4  TRP4        0.0029
     39 CD1        -4.8153    0.2625    0.5414 C.ar    4  TRP4        0.0060
     40 CE2        -5.5833   -0.7086   -1.3375 C.ar    4  TRP4        0.0467
     41 CE3        -4.1334    0.1701   -3.0505 C.ar    4  TRP4       -0.0523
     42 CZ2        -6.3021   -1.4647   -2.2712 C.ar    4  TRP4       -0.0378
     43 CZ3        -4.8435   -0.5765   -3.9974 C.ar    4  TRP4       -0.0611
     44 CH2        -5.9113   -1.3822   -3.6106 C.ar    4  TRP4       -0.0598
     45 H           3.8757   -0.6580   -0.8599 H       2  VAL2        0.1495
     46 H           0.3623    1.1663   -1.1725 H       5  ASP5        0.1495
     47 H           1.4505   -2.4957    1.1450 H       3  LEU3        0.1495
     48 H          -1.3688   -0.3708   -1.2130 H       4  TRP4        0.1495
     49 HE1        -6.4545   -1.0764    0.5580 H       4  TRP4        0.1653
     50 HA          5.2143    1.0631    0.0138 H       1  PRO1        0.0597
     51 HB1         5.9874    2.3784    1.7649 H       1  PRO1        0.0288
     52 HB2         5.8625    0.8926    2.7208 H       1  PRO1        0.0288
     53 HG1         4.5074    3.0641    3.5510 H       1  PRO1        0.0281
     54 HG2         3.6468    1.5129    3.5068 H       1  PRO1        0.0281
     55 HD1         2.2062    2.8457    2.1304 H       1  PRO1        0.0465
     56 HD2         3.5796    3.7249    1.3972 H       1  PRO1        0.0465
     57 HA          3.6030   -3.0189    0.9469 H       2  VAL2        0.0597
     58 HA          1.5367    3.5501    0.1385 H       5  ASP5        0.0598
     59 HB          4.7467   -3.1124   -1.9074 H       2  VAL2        0.0318
     60 HA         -0.1527   -2.2064   -1.3267 H       3  LEU3        0.0594
     61 HB1         0.8337    4.0727   -2.2815 H       5  ASP5        0.0348
     62 HB2         1.9250    2.7882   -2.8296 H       5  ASP5        0.0348
     63 HA         -1.9556    0.7988    1.4329 H       4  TRP4        0.0598
     64 HB1        -2.1012   -3.2850   -0.1669 H       3  LEU3        0.0290
     65 HB2        -1.0600   -3.7632    1.1605 H       3  LEU3        0.0290
     66 HG          0.2704   -5.2243   -0.3742 H       3  LEU3        0.0296
     67 HB1        -2.5178    1.9621   -1.3630 H       4  TRP4        0.0337
     68 HB2        -3.1734    2.5592    0.1471 H       4  TRP4        0.0337
     69 HG11        4.0128   -5.3853    0.0200 H       2  VAL2        0.0233
     70 HG12        4.8708   -5.5808   -1.5180 H       2  VAL2        0.0233
     71 HG13        3.2022   -5.0154   -1.5103 H       2  VAL2        0.0233
     72 HG21        6.0264   -3.8657    0.7757 H       2  VAL2        0.0233
     73 HG22        6.4902   -2.4988   -0.2549 H       2  VAL2        0.0233
     74 HG23        6.7361   -4.1519   -0.8226 H       2  VAL2        0.0233
     75 HD11       -2.7430   -5.7660   -0.4203 H       3  LEU3        0.0232
     76 HD12       -1.6397   -6.1421    0.9162 H       3  LEU3        0.0232
     77 HD13       -1.4593   -6.9688   -0.6363 H       3  LEU3        0.0232
     78 HD21       -1.7999   -4.4110   -2.4844 H       3  LEU3        0.0232
     79 HD22       -0.6665   -5.7639   -2.6414 H       3  LEU3        0.0232
     80 HD23       -0.0534   -4.1171   -2.5522 H       3  LEU3        0.0232
     81 HD1        -4.7871    0.4695    1.6039 H       4  TRP4        0.0810
     82 HE3        -3.3076    0.7998   -3.3690 H       4  TRP4        0.0624
     83 HZ2        -7.1358   -2.0914   -1.9727 H       4  TRP4        0.0638
     84 HZ3        -4.5580   -0.5216   -5.0451 H       4  TRP4        0.0618
     85 HH2        -6.4519   -1.9533   -4.3620 H       4  TRP4        0.0618
@<TRIPOS>BOND
     1     1    18    2
     2     2    19    2
     3     3    24    2
     4     4    29    2
     5     5    31    2
     6     6    35   ar
     7     7    35   ar
     8     8    14    1
     9     8    17    1
    10     8    19   am
    11     9    18   am
    12     9    20    1
    13    10    21    1
    14    10    29   am
    15    11    23    1
    16    11    24   am
    17    12    26    1
    18    12    31   am
    19    13    39   ar
    20    13    40   ar
    21    14    15    1
    22    14    18    1
    23    15    16    1
    24    16    17    1
    25    19    21    1
    26    20    22    1
    27    20    24    1
    28    21    25    1
    29    22    32    1
    30    22    33    1
    31    23    27    1
    32    23    31    1
    33    25    35    1
    34    26    29    1
    35    26    30    1
    36    27    28    1
    37    28    36    1
    38    28    37    1
    39    30    34    1
    40    34    38   ar
    41    34    39   ar
    42    38    40   ar
    43    38    41   ar
    44    40    42   ar
    45    41    43   ar
    46    42    44   ar
    47    43    44   ar
    48     9    45    1
    49    10    46    1
    50    11    47    1
    51    12    48    1
    52    13    49    1
    53    14    50    1
    54    15    51    1
    55    15    52    1
    56    16    53    1
    57    16    54    1
    58    17    55    1
    59    17    56    1
    60    20    57    1
    61    21    58    1
    62    22    59    1
    63    23    60    1
    64    25    61    1
    65    25    62    1
    66    26    63    1
    67    27    64    1
    68    27    65    1
    69    28    66    1
    70    30    67    1
    71    30    68    1
    72    32    69    1
    73    32    70    1
    74    32    71    1
    75    33    72    1
    76    33    73    1
    77    33    74    1
    78    36    75    1
    79    36    76    1
    80    36    77    1
    81    37    78    1
    82    37    79    1
    83    37    80    1
    84    39    81    1
    85    41    82    1
    86    42    83    1
    87    43    84    1
    88    44    85    1
@<TRIPOS>MOLECULE
16219006
 85 88 0 0 0
SMALL
GASTEIGER

@<TRIPOS>ATOM
      1 O           4.1785   -1.0660    2.2381 O.2     1  PRO1       -0.2738
      2 O           2.8445    0.8379   -1.2662 O.2     5  ASP5       -0.2735
      3 O           2.0511   -2.5342   -1.9245 O.2     2  VAL2       -0.2738
      4 O          -0.4740    2.9567    1.3006 O.2     4  TRP4       -0.2738
      5 O          -0.3287   -1.0115    1.7341 O.2     3  LEU3       -0.2738
      6 OD1         2.6374    5.5991   -1.4086 O.co2   5  ASP5       -0.5497
      7 OD2         4.0709    3.9194   -1.9801 O.co2   5  ASP5       -0.5497
      8 N           3.3761    1.7612    0.7389 N.am    1  PRO1       -0.2884
      9 N           4.0578   -1.2368   -0.0418 N.am    2  VAL2       -0.3022
     10 N           0.3399    2.0513   -0.6507 N.am    5  ASP5       -0.3021
     11 N           1.2010   -2.7053    0.1935 N.am    3  LEU3       -0.3025
     12 N          -1.2032   -0.1989   -0.2216 N.am    4  TRP4       -0.3022
     13 NE1        -5.7397   -0.5376    0.0329 N.ar    4  TRP4       -0.3604
     14 CA          4.5873    0.9583    0.9061 C.3     1  PRO1        0.1023
     15 CB          5.2974    1.5888    2.1096 C.3     1  PRO1       -0.0243
     16 CG          4.1689    2.2517    2.8899 C.3     1  PRO1       -0.0350
     17 CD          3.2531    2.7568    1.7890 C.3     1  PRO1        0.0156
     18 C           4.2607   -0.5377    1.1308 C.2     1  PRO1        0.2342
     19 C           2.6940    1.7668   -0.4584 C.2     5  ASP5        0.2369
     20 CA          3.6386   -2.6337   -0.0733 C.3     2  VAL2        0.1017
     21 CA          1.5889    2.8310   -0.6778 C.3     5  ASP5        0.1047
     22 CB          4.6242   -3.5001   -0.8877 C.3     2  VAL2       -0.0197
     23 CA         -0.1720   -2.4285   -0.2202 C.3     3  LEU3        0.0996
     24 C           2.2365   -2.6392   -0.7136 C.2     2  VAL2        0.2342
     25 CB          1.7520    3.5103   -2.0264 C.3     5  ASP5        0.0138
     26 CA         -1.6535    1.0574    0.3860 C.3     4  TRP4        0.1034
     27 CB         -1.0909   -3.5964    0.1576 C.3     3  LEU3       -0.0236
     28 CG         -2.5561   -3.4428   -0.2999 C.3     3  LEU3       -0.0446
     29 C          -0.5069    2.0807    0.4389 C.2     4  TRP4        0.2343
     30 CB         -2.8256    1.6806   -0.3847 C.3     4  TRP4        0.0013
     31 C          -0.5658   -1.1525    0.5355 C.2     3  LEU3        0.2340
     32 CG1         4.1405   -4.9540   -0.9745 C.3     2  VAL2       -0.0605
     33 CG2         6.0249   -3.4795   -0.2646 C.3     2  VAL2       -0.0605
     34 CG         -4.0048    0.7577   -0.4990 C.ar    4  TRP4       -0.0201
     35 CG          2.9357    4.4346   -1.7927 C.2     5  ASP5        0.0440
     36 CD1        -2.6878   -3.3649   -1.8216 C.3     3  LEU3       -0.0626
     37 CD2        -3.3889   -4.6153    0.2259 C.3     3  LEU3       -0.0626
     38 CD2        -4.5209    0.1639   -1.6960 C.ar    4  TRP4        0.0029
     39 CD1        -4.7916    0.3056    0.5430 C.ar    4  TRP4        0.0060
     40 CE2        -5.6004   -0.6415   -1.3309 C.ar    4  TRP4        0.0467
     41 CE3        -4.1667    0.2327   -3.0593 C.ar    4  TRP4       -0.0523
     42 CZ2        -6.3431   -1.3814   -2.2589 C.ar    4  TRP4       -0.0378
     43 CZ3        -4.8995   -0.4994   -4.0007 C.ar    4  TRP4       -0.0611
     44 CH2        -5.9716   -1.2942   -3.6034 C.ar    4  TRP4       -0.0598
     45 H           3.8175   -0.6566   -0.8551 H       2  VAL2        0.1495
     46 H           0.3764    1.1904   -1.1830 H       5  ASP5        0.1495
     47 H           1.4217   -2.4816    1.1628 H       3  LEU3        0.1495
     48 H          -1.3536   -0.3467   -1.2118 H       4  TRP4        0.1495
     49 HE1        -6.4432   -1.0179    0.5757 H       4  TRP4        0.1653
     50 HA          5.2169    1.0438    0.0115 H       1  PRO1        0.0597
     51 HB1         5.9932    2.3621    1.7603 H       1  PRO1        0.0288
     52 HB2         5.8649    0.8782    2.7175 H       1  PRO1        0.0288
     53 HG1         4.5169    3.0523    3.5484 H       1  PRO1        0.0281
     54 HG2         3.6488    1.5048    3.5015 H       1  PRO1        0.0281
     55 HD1         2.2168    2.8464    2.1239 H       1  PRO1        0.0465
     56 HD2         3.5955    3.7199    1.3946 H       1  PRO1        0.0465
     57 HA          3.5696   -3.0256    0.9482 H       2  VAL2        0.0597
     58 HA          1.5652    3.5680    0.1271 H       5  ASP5        0.0598
     59 HB          4.7041   -3.1058   -1.9096 H       2  VAL2        0.0318
     60 HA         -0.1991   -2.2457   -1.2976 H       3  LEU3        0.0594
     61 HB1         0.8604    4.0870   -2.2971 H       5  ASP5        0.0348
     62 HB2         1.9591    2.8064   -2.8399 H       5  ASP5        0.0348
     63 HA         -1.9460    0.8453    1.4220 H       4  TRP4        0.0598
     64 HB1        -1.0741   -3.7291    1.2483 H       3  LEU3        0.0290
     65 HB2        -0.6784   -4.5230   -0.2643 H       3  LEU3        0.0290
     66 HG         -2.9736   -2.5256    0.1312 H       3  LEU3        0.0296
     67 HB1        -2.4948    1.9815   -1.3868 H       4  TRP4        0.0337
     68 HB2        -3.1470    2.6039    0.1147 H       4  TRP4        0.0337
     69 HG11        4.0067   -5.3863    0.0228 H       2  VAL2        0.0233
     70 HG12        4.8629   -5.5724   -1.5176 H       2  VAL2        0.0233
     71 HG13        3.1869   -5.0288   -1.5059 H       2  VAL2        0.0233
     72 HG21        6.0028   -3.8382    0.7702 H       2  VAL2        0.0233
     73 HG22        6.4476   -2.4699   -0.2665 H       2  VAL2        0.0233
     74 HG23        6.7098   -4.1216   -0.8293 H       2  VAL2        0.0233
     75 HD11       -2.2069   -4.2213   -2.3060 H       3  LEU3        0.0232
     76 HD12       -2.2350   -2.4513   -2.2167 H       3  LEU3        0.0232
     77 HD13       -3.7410   -3.3589   -2.1206 H       3  LEU3        0.0232
     78 HD21       -3.0366   -5.5686   -0.1828 H       3  LEU3        0.0232
     79 HD22       -4.4426   -4.4974   -0.0490 H       3  LEU3        0.0232
     80 HD23       -3.3352   -4.6730    1.3182 H       3  LEU3        0.0232
     81 HD1        -4.7448    0.5040    1.6060 H       4  TRP4        0.0810
     82 HE3        -3.3375    0.8538   -3.3860 H       4  TRP4        0.0624
     83 HZ2        -7.1789   -2.0010   -1.9520 H       4  TRP4        0.0638
     84 HZ3        -4.6280   -0.4414   -5.0520 H       4  TRP4        0.0618
     85 HH2        -6.5294   -1.8542   -4.3503 H       4  TRP4        0.0618
@<TRIPOS>BOND
     1     1    18    2
     2     2    19    2
     3     3    24    2
     4     4    29    2
     5     5    31    2
     6     6    35   ar
     7     7    35   ar
     8     8    14    1
     9     8    17    1
    10     8    19   am
    11     9    18   am
    12     9    20    1
    13    10    21    1
    14    10    29   am
    15    11    23    1
    16    11    24   am
    17    12    26    1
    18    12    31   am
    19    13    39   ar
    20    13    40   ar
    21    14    15    1
    22    14    18    1
    23    15    16    1
    24    16    17    1
    25    19    21    1
    26    20    22    1
    27    20    24    1
    28    21    25    1
    29    22    32    1
    30    22    33    1
    31    23    27    1
    32    23    31    1
    33    25    35    1
    34    26    29    1
    35    26    30    1
    36    27    28    1
    37    28    36    1
    38    28    37    1
    39    30    34    1
    40    34    38   ar
    41    34    39   ar
    42    38    40   ar
    43    38    41   ar
    44    40    42   ar
    45    41    43   ar
    46    42    44   ar
    47    43    44   ar
    48     9    45    1
    49    10    46    1
    50    11    47    1
    51    12    48    1
    52    13    49    1
    53    14    50    1
    54    15    51    1
    55    15    52    1
    56    16    53    1
    57    16    54    1
    58    17    55    1
    59    17    56    1
    60    20    57    1
    61    21    58    1
    62    22    59    1
    63    23    60    1
    64    25    61    1
    65    25    62    1
    66    26    63    1
    67    27    64    1
    68    27    65    1
    69    28    66    1
    70    30    67    1
    71    30    68    1
    72    32    69    1
    73    32    70    1
    74    32    71    1
    75    33    72    1
    76    33    73    1
    77    33    74    1
    78    36    75    1
    79    36    76    1
    80    36    77    1
    81    37    78    1
    82    37    79    1
    83    37    80    1
    84    39    81    1
    85    41    82    1
    86    42    83    1
    87    43    84    1
    88    44    85    1
@<TRIPOS>MOLECULE
16219006
 85 88 0 0 0
SMALL
GASTEIGER

@<TRIPOS>ATOM
      1 O           4.2437   -1.0901    2.3041 O.2     1  PRO1       -0.2738
      2 O           3.1957    1.0014   -1.3012 O.2     5  ASP5       -0.2735
      3 O           2.1036   -2.2991   -1.8811 O.2     2  VAL2       -0.2738
      4 O          -0.5330    3.0215    1.2040 O.2     4  TRP4       -0.2738
      5 O          -0.4964   -1.0908    1.7574 O.2     3  LEU3       -0.2738
      6 OD1         3.6407    4.5518   -1.0967 O.co2   5  ASP5       -0.5497
      7 OD2         2.9566    5.0066   -3.2262 O.co2   5  ASP5       -0.5497
      8 N           3.4802    1.7492    0.8209 N.am    1  PRO1       -0.2884
      9 N           4.1427   -1.2015    0.0202 N.am    2  VAL2       -0.3022
     10 N           0.5140    1.9237   -0.5173 N.am    5  ASP5       -0.3021
     11 N           1.2292   -2.6783    0.1988 N.am    3  LEU3       -0.3025
     12 N          -1.2168   -0.2325   -0.2451 N.am    4  TRP4       -0.3022
     13 NE1        -1.7022    2.9387   -3.7347 N.ar    4  TRP4       -0.3604
     14 CA          4.6919    0.9613    1.0320 C.3     1  PRO1        0.1023
     15 CB          5.3286    1.5730    2.2826 C.3     1  PRO1       -0.0243
     16 CG          4.1455    2.1730    3.0320 C.3     1  PRO1       -0.0350
     17 CD          3.2602    2.6857    1.9084 C.3     1  PRO1        0.0156
     18 C           4.3452   -0.5350    1.2115 C.2     1  PRO1        0.2342
     19 C           2.8955    1.8277   -0.4276 C.2     5  ASP5        0.2369
     20 CA          3.6708   -2.5797   -0.0383 C.3     2  VAL2        0.1017
     21 CA          1.6977    2.7909   -0.6126 C.3     5  ASP5        0.1047
     22 CB          4.6204   -3.4717   -0.8693 C.3     2  VAL2       -0.0197
     23 CA         -0.1402   -2.4342   -0.2296 C.3     3  LEU3        0.0996
     24 C           2.2750   -2.5175   -0.6834 C.2     2  VAL2        0.2342
     25 CB          1.7279    3.4560   -1.9772 C.3     5  ASP5        0.0138
     26 CA         -1.6403    1.0550    0.3190 C.3     4  TRP4        0.1034
     27 CB         -1.0582   -3.6211    0.0896 C.3     3  LEU3       -0.0236
     28 CG         -0.7045   -4.9259   -0.6544 C.3     3  LEU3       -0.0446
     29 C          -0.4792    2.0731    0.4217 C.2     4  TRP4        0.2343
     30 CB         -2.8183    1.6598   -0.4696 C.3     4  TRP4        0.0013
     31 C          -0.6228   -1.1941    0.5386 C.2     3  LEU3        0.2340
     32 CG1         4.0798   -4.9043   -0.9739 C.3     2  VAL2       -0.0605
     33 CG2         6.0238   -3.5129   -0.2539 C.3     2  VAL2       -0.0605
     34 CG         -2.5057    1.9340   -1.9126 C.ar    4  TRP4       -0.0201
     35 CG          2.8957    4.4230   -2.1061 C.2     5  ASP5        0.0440
     36 CD1        -1.6451   -6.0473   -0.2042 C.3     3  LEU3       -0.0626
     37 CD2        -0.7783   -4.7752   -2.1747 C.3     3  LEU3       -0.0626
     38 CD2        -2.6018    1.0272   -3.0175 C.ar    4  TRP4        0.0029
     39 CD1        -2.0023    3.1185   -2.4125 C.ar    4  TRP4        0.0060
     40 CE2        -2.0673    1.6735   -4.1325 C.ar    4  TRP4        0.0467
     41 CE3        -3.0483   -0.3033   -3.1629 C.ar    4  TRP4       -0.0523
     42 CZ2        -1.9427    1.0536   -5.3807 C.ar    4  TRP4       -0.0378
     43 CZ3        -2.9314   -0.9383   -4.4049 C.ar    4  TRP4       -0.0611
     44 CH2        -2.3833   -0.2676   -5.4955 C.ar    4  TRP4       -0.0598
     45 H           3.9513   -0.6025   -0.7923 H       2  VAL2        0.1495
     46 H           0.5195    1.1113   -1.1178 H       5  ASP5        0.1495
     47 H           1.4233   -2.5292    1.1869 H       3  LEU3        0.1495
     48 H          -1.0668   -0.2688   -1.2480 H       4  TRP4        0.1495
     49 HE1        -1.2392    3.6220   -4.3220 H       4  TRP4        0.1653
     50 HA          5.3673    1.0610    0.1729 H       1  PRO1        0.0597
     51 HB1         6.0128    2.3787    1.9880 H       1  PRO1        0.0288
     52 HB2         5.8923    0.8597    2.8911 H       1  PRO1        0.0288
     53 HG1         4.4383    2.9623    3.7298 H       1  PRO1        0.0281
     54 HG2         3.6244    1.3910    3.5974 H       1  PRO1        0.0281
     55 HD1         2.2049    2.7130    2.1931 H       1  PRO1        0.0465
     56 HD2         3.5757    3.6814    1.5805 H       1  PRO1        0.0465
     57 HA          3.5848   -2.9888    0.9754 H       2  VAL2        0.0597
     58 HA          1.6535    3.5474    0.1732 H       5  ASP5        0.0598
     59 HB          4.7095   -3.0667   -1.8863 H       2  VAL2        0.0318
     60 HA         -0.1727   -2.2160   -1.3013 H       3  LEU3        0.0594
     61 HB1         0.8067    4.0281   -2.1339 H       5  ASP5        0.0348
     62 HB2         1.7927    2.7147   -2.7834 H       5  ASP5        0.0348
     63 HA         -1.9713    0.8676    1.3483 H       4  TRP4        0.0598
     64 HB1        -2.0953   -3.3416   -0.1427 H       3  LEU3        0.0290
     65 HB2        -1.0335   -3.8155    1.1712 H       3  LEU3        0.0290
     66 HG          0.3176   -5.2236   -0.3879 H       3  LEU3        0.0296
     67 HB1        -3.1379    2.5948    0.0093 H       4  TRP4        0.0337
     68 HB2        -3.6755    0.9764   -0.4176 H       4  TRP4        0.0337
     69 HG11        3.9363   -5.3465    0.0175 H       2  VAL2        0.0233
     70 HG12        4.7738   -5.5418   -1.5314 H       2  VAL2        0.0233
     71 HG13        3.1196   -4.9342   -1.4997 H       2  VAL2        0.0233
     72 HG21        5.9931   -3.8847    0.7755 H       2  VAL2        0.0233
     73 HG22        6.4834   -2.5201   -0.2444 H       2  VAL2        0.0233
     74 HG23        6.6802   -4.1718   -0.8312 H       2  VAL2        0.0233
     75 HD11       -2.6861   -5.8169   -0.4548 H       3  LEU3        0.0232
     76 HD12       -1.5815   -6.1987    0.8784 H       3  LEU3        0.0232
     77 HD13       -1.3821   -6.9936   -0.6884 H       3  LEU3        0.0232
     78 HD21       -1.7558   -4.3960   -2.4894 H       3  LEU3        0.0232
     79 HD22       -0.6143   -5.7389   -2.6687 H       3  LEU3        0.0232
     80 HD23       -0.0107   -4.0910   -2.5465 H       3  LEU3        0.0232
     81 HD1        -1.7579    4.0523   -1.9206 H       4  TRP4        0.0810
     82 HE3        -3.4709   -0.8386   -2.3185 H       4  TRP4        0.0624
     83 HZ2        -1.5051    1.5726   -6.2281 H       4  TRP4        0.0638
     84 HZ3        -3.2642   -1.9672   -4.5169 H       4  TRP4        0.0618
     85 HH2        -2.2881   -0.7789   -6.4507 H       4  TRP4        0.0618
@<TRIPOS>BOND
     1     1    18    2
     2     2    19    2
     3     3    24    2
     4     4    29    2
     5     5    31    2
     6     6    35   ar
     7     7    35   ar
     8     8    14    1
     9     8    17    1
    10     8    19   am
    11     9    18   am
    12     9    20    1
    13    10    21    1
    14    10    29   am
    15    11    23    1
    16    11    24   am
    17    12    26    1
    18    12    31   am
    19    13    39   ar
    20    13    40   ar
    21    14    15    1
    22    14    18    1
    23    15    16    1
    24    16    17    1
    25    19    21    1
    26    20    22    1
    27    20    24    1
    28    21    25    1
    29    22    32    1
    30    22    33    1
    31    23    27    1
    32    23    31    1
    33    25    35    1
    34    26    29    1
    35    26    30    1
    36    27    28    1
    37    28    36    1
    38    28    37    1
    39    30    34    1
    40    34    38   ar
    41    34    39   ar
    42    38    40   ar
    43    38    41   ar
    44    40    42   ar
    45    41    43   ar
    46    42    44   ar
    47    43    44   ar
    48     9    45    1
    49    10    46    1
    50    11    47    1
    51    12    48    1
    52    13    49    1
    53    14    50    1
    54    15    51    1
    55    15    52    1
    56    16    53    1
    57    16    54    1
    58    17    55    1
    59    17    56    1
    60    20    57    1
    61    21    58    1
    62    22    59    1
    63    23    60    1
    64    25    61    1
    65    25    62    1
    66    26    63    1
    67    27    64    1
    68    27    65    1
    69    28    66    1
    70    30    67    1
    71    30    68    1
    72    32    69    1
    73    32    70    1
    74    32    71    1
    75    33    72    1
    76    33    73    1
    77    33    74    1
    78    36    75    1
    79    36    76    1
    80    36    77    1
    81    37    78    1
    82    37    79    1
    83    37    80    1
    84    39    81    1
    85    41    82    1
    86    42    83    1
    87    43    84    1
    88    44    85    1
