@<TRIPOS>MOLECULE
23693553
 97 99 0 0 0
SMALL
GASTEIGER

@<TRIPOS>ATOM
      1 O           1.3639    3.7076   -1.0548 O.2     1  LIG1       -0.2526
      2 O           0.4378   -1.3207   -1.5476 O.2     1  LIG1       -0.2731
      3 O           2.6920    1.7196    0.3410 O.2     1  LIG1       -0.2689
      4 O           0.9842   -3.6046    1.5288 O.co2   1  LIG1       -0.5479
      5 OXT        -0.1884   -1.6503    1.4908 O.co2   1  LIG1       -0.5479
      6 O          -1.7211    2.3717    7.1324 O.3     1  LIG1       -0.4515
      7 O           0.0027    2.8891    8.5836 O.2     1  LIG1       -0.2227
      8 N          -0.8860    4.0706   -0.8540 N.am    1  LIG1       -0.2801
      9 N          -0.0406    1.9735   -1.4756 N.am    1  LIG1       -0.2879
     10 N           1.6924   -0.2976    0.0804 N.am    1  LIG1       -0.2273
     11 N           0.6979   -0.0632    2.9306 N.4     1  LIG1        0.2276
     12 N           0.3659    2.7543    6.3048 N.ar    1  LIG1       -0.2526
     13 C          -2.2972    3.6575   -1.0274 C.3     1  LIG1        0.0249
     14 C          -0.5759    5.4899   -0.5627 C.3     1  LIG1        0.0249
     15 C          -3.3138    4.5303   -0.2728 C.3     1  LIG1       -0.0344
     16 C          -1.6412    6.2351    0.2569 C.3     1  LIG1       -0.0344
     17 C          -2.6689    5.2994    0.8649 C.3     1  LIG1       -0.0497
     18 CA          0.8886    0.9773   -2.0153 C.3     1  LIG1        0.1019
     19 C           2.2764    1.8476   -4.1141 C.3     1  LIG1       -0.0356
     20 C           2.2488    1.3842   -2.6249 C.3     1  LIG1       -0.0210
     21 C           0.2236    3.2640   -1.1283 C.2     1  LIG1        0.3033
     22 C          -2.6928    3.5588   -2.5052 C.3     1  LIG1       -0.0464
     23 C          -0.2351    6.2729   -1.8375 C.3     1  LIG1       -0.0464
     24 C           0.9992   -0.2967   -1.1344 C.2     1  LIG1        0.2429
     25 C           1.7661    0.7487   -5.0652 C.3     1  LIG1       -0.0600
     26 C           1.4565    3.1249   -4.3354 C.3     1  LIG1       -0.0600
     27 C           3.7472    2.1430   -4.4834 C.3     1  LIG1       -0.0600
     28 CA          2.0226   -1.6350    0.6427 C.3     1  LIG1        0.0730
     29 C           2.9713   -2.4523   -0.2552 C.3     1  LIG1       -0.0286
     30 C           1.9590    0.8457    0.8120 C.2     1  LIG1        0.2708
     31 CA          1.6035    0.9531    2.3202 C.3     1  LIG1        0.0579
     32 C           4.2664   -1.6841   -0.5615 C.3     1  LIG1       -0.0513
     33 C           1.0311    2.3546    2.6453 C.3     1  LIG1        0.0261
     34 C           0.7850   -2.4196    1.1727 C.2     1  LIG1        0.0626
     35 C           1.0213    2.6130    4.1328 C.ar    1  LIG1       -0.0158
     36 C           5.2951   -2.5103   -1.3318 C.3     1  LIG1       -0.0558
     37 C           2.1630    2.9076    4.9354 C.ar    1  LIG1        0.0038
     38 C          -0.0590    2.5615    4.9905 C.ar    1  LIG1        0.0202
     39 C           1.7470    2.9683    6.2691 C.ar    1  LIG1        0.0598
     40 C           6.0321   -3.5016   -0.4457 C.3     1  LIG1       -0.0653
     41 C           3.5281    3.0997    4.6313 C.ar    1  LIG1       -0.0523
     42 C           2.6734    3.1974    7.3077 C.ar    1  LIG1       -0.0371
     43 C           4.4447    3.3282    5.6603 C.ar    1  LIG1       -0.0611
     44 C          -0.4440    2.7007    7.4637 C.2     1  LIG1        0.4196
     45 C           4.0207    3.3708    6.9812 C.ar    1  LIG1       -0.0598
     46 C          -2.5787    2.2247    8.2663 C.3     1  LIG1        0.0835
     47 H          -0.9979    1.6683   -1.4852 H       1  LIG1        0.1510
     48 H1          0.1465    0.2465    3.7314 H       1  LIG1        0.2002
     49 H2          1.1833   -0.9196    3.2226 H       1  LIG1        0.2002
     50 H3          0.0104   -0.4730    2.2379 H       1  LIG1        0.2002
     51 H          -2.3826    2.6565   -0.5885 H       1  LIG1        0.0498
     52 H           0.3316    5.4895    0.0567 H       1  LIG1        0.0498
     53 H          -4.1238    3.8988    0.1115 H       1  LIG1        0.0283
     54 H          -3.7895    5.2448   -0.9580 H       1  LIG1        0.0283
     55 H          -2.1610    6.9701   -0.3725 H       1  LIG1        0.0283
     56 H          -1.1530    6.8177    1.0479 H       1  LIG1        0.0283
     57 H          -2.2007    4.6177    1.5845 H       1  LIG1        0.0266
     58 H          -3.4261    5.8786    1.4041 H       1  LIG1        0.0266
     59 HA          0.3003    0.6033   -2.8634 H       1  LIG1        0.0595
     60 H           2.9055    0.5055   -2.5728 H       1  LIG1        0.0293
     61 H           2.7498    2.1398   -2.0173 H       1  LIG1        0.0293
     62 H          -2.6251    4.5334   -2.9996 H       1  LIG1        0.0248
     63 H          -3.7235    3.2011   -2.6044 H       1  LIG1        0.0248
     64 H          -2.0493    2.8696   -3.0590 H       1  LIG1        0.0248
     65 H          -1.0916    6.3185   -2.5172 H       1  LIG1        0.0248
     66 H           0.5939    5.8146   -2.3853 H       1  LIG1        0.0248
     67 H           0.0594    7.2994   -1.5924 H       1  LIG1        0.0248
     68 H           2.2760   -0.2035   -4.8809 H       1  LIG1        0.0235
     69 H           1.9460    1.0217   -6.1120 H       1  LIG1        0.0235
     70 H           0.6896    0.5821   -4.9638 H       1  LIG1        0.0235
     71 H           1.8170    3.9406   -3.7005 H       1  LIG1        0.0235
     72 H           0.3948    2.9665   -4.1247 H       1  LIG1        0.0235
     73 H           1.5335    3.4648   -5.3748 H       1  LIG1        0.0235
     74 H           4.1697    2.9210   -3.8374 H       1  LIG1        0.0235
     75 H           3.8381    2.4862   -5.5200 H       1  LIG1        0.0235
     76 H           4.3691    1.2465   -4.3760 H       1  LIG1        0.0235
     77 HA          2.6059   -1.4418    1.5552 H       1  LIG1        0.0567
     78 H           2.4803   -2.7294   -1.1947 H       1  LIG1        0.0287
     79 H           3.2167   -3.3943    0.2477 H       1  LIG1        0.0287
     80 HA          2.5544    0.8135    2.8492 H       1  LIG1        0.0952
     81 H           4.7128   -1.3096    0.3679 H       1  LIG1        0.0266
     82 H           4.0265   -0.8047   -1.1666 H       1  LIG1        0.0266
     83 H           0.0110    2.4395    2.2474 H       1  LIG1        0.0374
     84 H           1.6158    3.1428    2.1570 H       1  LIG1        0.0374
     85 H           6.0335   -1.8270   -1.7689 H       1  LIG1        0.0263
     86 H           4.8156   -3.0361   -2.1651 H       1  LIG1        0.0263
     87 H          -1.1100    2.3890    4.7912 H       1  LIG1        0.0818
     88 H           6.5361   -2.9866    0.3792 H       1  LIG1        0.0230
     89 H           6.7939   -4.0311   -1.0264 H       1  LIG1        0.0230
     90 H           5.3529   -4.2465   -0.0220 H       1  LIG1        0.0230
     91 H           3.8795    3.0792    3.6023 H       1  LIG1        0.0624
     92 H           2.3660    3.2397    8.3497 H       1  LIG1        0.0638
     93 H           5.4957    3.4758    5.4236 H       1  LIG1        0.0618
     94 H           4.7438    3.5472    7.7749 H       1  LIG1        0.0618
     95 H          -3.5596    1.8981    7.9116 H       1  LIG1        0.0661
     96 H          -2.6952    3.1823    8.7835 H       1  LIG1        0.0661
     97 H          -2.1889    1.4622    8.9491 H       1  LIG1        0.0661
@<TRIPOS>BOND
     1     1    21    2
     2     2    24    2
     3     3    30    2
     4     4    34   ar
     5     5    34   ar
     6     6    44    1
     7     6    46    1
     8     7    44    2
     9     8    13    1
    10     8    14    1
    11     9    21   am
    12    10    24   am
    13    10    30   am
    14    12    39   ar
    15    12    38   ar
    16    12    44   am
    17    13    15    1
    18    13    22    1
    19    14    16    1
    20    14    23    1
    21    15    17    1
    22    16    17    1
    23    18     9    1
    24    18    24    1
    25    18    20    1
    26    19    20    1
    27    19    27    1
    28    19    26    1
    29    19    25    1
    30    21     8   am
    31    28    34    1
    32    28    29    1
    33    28    10    1
    34    29    32    1
    35    31    33    1
    36    31    11    1
    37    31    30    1
    38    32    36    1
    39    33    35    1
    40    35    38   ar
    41    35    37   ar
    42    36    40    1
    43    37    39   ar
    44    37    41   ar
    45    39    42   ar
    46    41    43   ar
    47    42    45   ar
    48    43    45   ar
    49     9    47    1
    50    11    48    1
    51    11    49    1
    52    11    50    1
    53    13    51    1
    54    14    52    1
    55    15    53    1
    56    15    54    1
    57    16    55    1
    58    16    56    1
    59    17    57    1
    60    17    58    1
    61    18    59    1
    62    20    60    1
    63    20    61    1
    64    22    62    1
    65    22    63    1
    66    22    64    1
    67    23    65    1
    68    23    66    1
    69    23    67    1
    70    25    68    1
    71    25    69    1
    72    25    70    1
    73    26    71    1
    74    26    72    1
    75    26    73    1
    76    27    74    1
    77    27    75    1
    78    27    76    1
    79    28    77    1
    80    29    78    1
    81    29    79    1
    82    31    80    1
    83    32    81    1
    84    32    82    1
    85    33    83    1
    86    33    84    1
    87    36    85    1
    88    36    86    1
    89    38    87    1
    90    40    88    1
    91    40    89    1
    92    40    90    1
    93    41    91    1
    94    42    92    1
    95    43    93    1
    96    45    94    1
    97    46    95    1
    98    46    96    1
    99    46    97    1
@<TRIPOS>MOLECULE
23693553
 97 99 0 0 0
SMALL
GASTEIGER

@<TRIPOS>ATOM
      1 O           2.4733    3.1703   -2.1918 O.2     1  LIG1       -0.2526
      2 O          -0.0254   -1.3277   -1.3167 O.2     1  LIG1       -0.2731
      3 O           2.7963    1.4470    0.0186 O.2     1  LIG1       -0.2689
      4 O          -0.1675   -2.6264    2.4893 O.co2   1  LIG1       -0.5479
      5 OXT        -0.5175   -0.5298    1.6413 O.co2   1  LIG1       -0.5479
      6 O           6.0944    4.8652    2.1708 O.3     1  LIG1       -0.4515
      7 O           7.7201    3.9172    0.8283 O.2     1  LIG1       -0.2227
      8 N           0.8382    4.2690   -1.0334 N.am    1  LIG1       -0.2801
      9 N           0.6085    1.9923   -1.5925 N.am    1  LIG1       -0.2879
     10 N           1.6463   -0.5457    0.0597 N.am    1  LIG1       -0.2273
     11 N           1.5670    2.3722    2.2324 N.4     1  LIG1        0.2276
     12 N           6.0456    2.6316    1.7699 N.ar    1  LIG1       -0.2526
     13 C          -0.5548    4.3914   -0.5546 C.3     1  LIG1        0.0249
     14 C           1.7505    5.4391   -0.9946 C.3     1  LIG1        0.0249
     15 C          -0.7958    5.5483    0.4285 C.3     1  LIG1       -0.0344
     16 C           1.4340    6.4878    0.0831 C.3     1  LIG1       -0.0344
     17 C           0.4762    5.9711    1.1382 C.3     1  LIG1       -0.0497
     18 CA          0.9773    0.6647   -2.1423 C.3     1  LIG1        0.1019
     19 C           2.4348   -0.6758   -3.9459 C.3     1  LIG1       -0.0356
     20 C           2.2378    0.5747   -3.0304 C.3     1  LIG1       -0.0210
     21 C           1.3621    3.1347   -1.6717 C.2     1  LIG1        0.3033
     22 C          -1.5562    4.4832   -1.7105 C.3     1  LIG1       -0.0464
     23 C           1.9067    6.1225   -2.3603 C.3     1  LIG1       -0.0464
     24 C           0.8455   -0.4766   -1.0901 C.2     1  LIG1        0.2429
     25 C           1.1724   -1.0114   -4.7572 C.3     1  LIG1       -0.0600
     26 C           3.5707   -0.3495   -4.9424 C.3     1  LIG1       -0.0600
     27 C           2.8641   -1.9124   -3.1467 C.3     1  LIG1       -0.0600
     28 CA          1.4130   -1.7311    0.9405 C.3     1  LIG1        0.0730
     29 C           1.9811   -3.0384    0.3581 C.3     1  LIG1       -0.0286
     30 C           2.1487    0.5999    0.6423 C.2     1  LIG1        0.2708
     31 CA          1.9461    0.9071    2.1576 C.3     1  LIG1        0.0579
     32 C           0.9834   -4.0575   -0.1890 C.3     1  LIG1       -0.0513
     33 C           3.1825    0.6451    3.0383 C.3     1  LIG1        0.0261
     34 C           0.0525   -1.6702    1.7030 C.2     1  LIG1        0.0626
     35 C           4.4525    1.1886    2.4775 C.ar    1  LIG1       -0.0158
     36 C           1.6642   -5.1928   -0.9649 C.3     1  LIG1       -0.0558
     37 C           5.3950    0.4675    1.6881 C.ar    1  LIG1        0.0038
     38 C           4.9105    2.4835    2.5642 C.ar    1  LIG1        0.0202
     39 C           6.3629    1.3758    1.2466 C.ar    1  LIG1        0.0598
     40 C           2.6738   -5.9837   -0.1462 C.3     1  LIG1       -0.0653
     41 C           5.4776   -0.8816    1.2766 C.ar    1  LIG1       -0.0523
     42 C           7.4067    0.9637    0.3954 C.ar    1  LIG1       -0.0371
     43 C           6.5130   -1.2902    0.4347 C.ar    1  LIG1       -0.0611
     44 C           6.7244    3.8472    1.5305 C.2     1  LIG1        0.4196
     45 C           7.4624   -0.3758   -0.0011 C.ar    1  LIG1       -0.0598
     46 C           6.6885    6.1480    1.9672 C.3     1  LIG1        0.0835
     47 H          -0.3671    2.0670   -1.3595 H       1  LIG1        0.1510
     48 H1          1.6528    2.7689    3.1684 H       1  LIG1        0.2002
     49 H2          0.5952    2.4514    1.9076 H       1  LIG1        0.2002
     50 H3          2.1624    2.8741    1.5515 H       1  LIG1        0.2002
     51 H          -0.7676    3.4709    0.0027 H       1  LIG1        0.0498
     52 H           2.7385    5.0342   -0.7312 H       1  LIG1        0.0498
     53 H          -1.5558    5.2531    1.1619 H       1  LIG1        0.0283
     54 H          -1.2090    6.4182   -0.0998 H       1  LIG1        0.0283
     55 H           0.9994    7.3853   -0.3770 H       1  LIG1        0.0283
     56 H           2.3670    6.8204    0.5549 H       1  LIG1        0.0283
     57 H           0.9167    5.1358    1.6922 H       1  LIG1        0.0266
     58 H           0.2576    6.7651    1.8605 H       1  LIG1        0.0266
     59 HA          0.1311    0.4955   -2.8231 H       1  LIG1        0.0595
     60 H           3.1363    0.7011   -2.4150 H       1  LIG1        0.0293
     61 H           2.2036    1.4313   -3.7169 H       1  LIG1        0.0293
     62 H          -1.3858    5.3846   -2.3089 H       1  LIG1        0.0248
     63 H          -2.5816    4.5164   -1.3277 H       1  LIG1        0.0248
     64 H          -1.4838    3.6267   -2.3876 H       1  LIG1        0.0248
     65 H           0.9565    6.5373   -2.7069 H       1  LIG1        0.0248
     66 H           2.2667    5.4340   -3.1289 H       1  LIG1        0.0248
     67 H           2.6357    6.9401   -2.2937 H       1  LIG1        0.0248
     68 H           0.3563   -1.3600   -4.1164 H       1  LIG1        0.0235
     69 H           1.3712   -1.8104   -5.4814 H       1  LIG1        0.0235
     70 H           0.8164   -0.1388   -5.3157 H       1  LIG1        0.0235
     71 H           4.4975   -0.0961   -4.4159 H       1  LIG1        0.0235
     72 H           3.3047    0.4993   -5.5828 H       1  LIG1        0.0235
     73 H           3.7824   -1.2011   -5.5995 H       1  LIG1        0.0235
     74 H           3.6816   -1.6773   -2.4566 H       1  LIG1        0.0235
     75 H           3.2126   -2.7126   -3.8103 H       1  LIG1        0.0235
     76 H           2.0338   -2.3276   -2.5743 H       1  LIG1        0.0235
     77 HA          2.1086   -1.5659    1.7730 H       1  LIG1        0.0567
     78 H           2.5378   -3.5355    1.1649 H       1  LIG1        0.0287
     79 H           2.7350   -2.8020   -0.4015 H       1  LIG1        0.0287
     80 HA          1.1148    0.4130    2.6363 H       1  LIG1        0.0952
     81 H           0.2656   -3.5847   -0.8610 H       1  LIG1        0.0266
     82 H           0.4062   -4.4870    0.6372 H       1  LIG1        0.0266
     83 H           3.2934   -0.4328    3.2016 H       1  LIG1        0.0374
     84 H           3.0193    1.0731    4.0367 H       1  LIG1        0.0374
     85 H           2.1637   -4.7874   -1.8526 H       1  LIG1        0.0263
     86 H           0.8892   -5.8790   -1.3261 H       1  LIG1        0.0263
     87 H           4.5089    3.3418    3.0858 H       1  LIG1        0.0818
     88 H           3.5484   -5.3756    0.1055 H       1  LIG1        0.0230
     89 H           3.0288   -6.8464   -0.7190 H       1  LIG1        0.0230
     90 H           2.2271   -6.3514    0.7825 H       1  LIG1        0.0230
     91 H           4.7425   -1.6129    1.6010 H       1  LIG1        0.0624
     92 H           8.1543    1.6630    0.0312 H       1  LIG1        0.0638
     93 H           6.5696   -2.3273    0.1136 H       1  LIG1        0.0618
     94 H           8.2584   -0.7026   -0.6666 H       1  LIG1        0.0618
     95 H           6.3563    6.8064    2.7746 H       1  LIG1        0.0661
     96 H           6.3434    6.5613    1.0153 H       1  LIG1        0.0661
     97 H           7.7816    6.1007    1.9946 H       1  LIG1        0.0661
@<TRIPOS>BOND
     1     1    21    2
     2     2    24    2
     3     3    30    2
     4     4    34   ar
     5     5    34   ar
     6     6    44    1
     7     6    46    1
     8     7    44    2
     9     8    13    1
    10     8    14    1
    11     9    21   am
    12    10    24   am
    13    10    30   am
    14    12    39   ar
    15    12    38   ar
    16    12    44   am
    17    13    15    1
    18    13    22    1
    19    14    16    1
    20    14    23    1
    21    15    17    1
    22    16    17    1
    23    18     9    1
    24    18    24    1
    25    18    20    1
    26    19    20    1
    27    19    27    1
    28    19    26    1
    29    19    25    1
    30    21     8   am
    31    28    34    1
    32    28    29    1
    33    28    10    1
    34    29    32    1
    35    31    33    1
    36    31    11    1
    37    31    30    1
    38    32    36    1
    39    33    35    1
    40    35    38   ar
    41    35    37   ar
    42    36    40    1
    43    37    39   ar
    44    37    41   ar
    45    39    42   ar
    46    41    43   ar
    47    42    45   ar
    48    43    45   ar
    49     9    47    1
    50    11    48    1
    51    11    49    1
    52    11    50    1
    53    13    51    1
    54    14    52    1
    55    15    53    1
    56    15    54    1
    57    16    55    1
    58    16    56    1
    59    17    57    1
    60    17    58    1
    61    18    59    1
    62    20    60    1
    63    20    61    1
    64    22    62    1
    65    22    63    1
    66    22    64    1
    67    23    65    1
    68    23    66    1
    69    23    67    1
    70    25    68    1
    71    25    69    1
    72    25    70    1
    73    26    71    1
    74    26    72    1
    75    26    73    1
    76    27    74    1
    77    27    75    1
    78    27    76    1
    79    28    77    1
    80    29    78    1
    81    29    79    1
    82    31    80    1
    83    32    81    1
    84    32    82    1
    85    33    83    1
    86    33    84    1
    87    36    85    1
    88    36    86    1
    89    38    87    1
    90    40    88    1
    91    40    89    1
    92    40    90    1
    93    41    91    1
    94    42    92    1
    95    43    93    1
    96    45    94    1
    97    46    95    1
    98    46    96    1
    99    46    97    1
@<TRIPOS>MOLECULE
23693553
 97 99 0 0 0
SMALL
GASTEIGER

@<TRIPOS>ATOM
      1 O           0.5120   -4.4111    0.2552 O.2     1  LIG1       -0.2526
      2 O           0.6028    0.1745   -2.0883 O.2     1  LIG1       -0.2731
      3 O           0.5437    1.6086    1.5093 O.2     1  LIG1       -0.2689
      4 O           4.0082   -1.7395    1.3516 O.co2   1  LIG1       -0.5479
      5 OXT         3.3756   -0.5547   -0.4829 O.co2   1  LIG1       -0.5479
      6 O           4.6957    6.3229    4.3825 O.3     1  LIG1       -0.4515
      7 O           3.0763    7.4665    3.1956 O.2     1  LIG1       -0.2227
      8 N           2.6570   -4.8546   -0.4239 N.am    1  LIG1       -0.2801
      9 N           1.4027   -3.0880   -1.3558 N.am    1  LIG1       -0.2879
     10 N           0.9195   -0.2193    0.1545 N.am    1  LIG1       -0.2273
     11 N           2.7993    1.6731   -1.3258 N.4     1  LIG1        0.2276
     12 N           3.6473    5.3278    2.6046 N.ar    1  LIG1       -0.2526
     13 C           2.7542   -5.7971    0.7173 C.3     1  LIG1        0.0249
     14 C           3.7150   -4.8311   -1.4672 C.3     1  LIG1        0.0249
     15 C           3.8593   -6.8489    0.6128 C.3     1  LIG1       -0.0344
     16 C           4.5553   -6.1215   -1.6074 C.3     1  LIG1       -0.0344
     17 C           4.0244   -7.3012   -0.8214 C.3     1  LIG1       -0.0497
     18 CA          0.2860   -2.1254   -1.5006 C.3     1  LIG1        0.1019
     19 C          -2.3742   -1.7884   -1.3552 C.3     1  LIG1       -0.0356
     20 C          -1.0866   -2.5680   -0.9469 C.3     1  LIG1       -0.0210
     21 C           1.4614   -4.1347   -0.4756 C.2     1  LIG1        0.3033
     22 C           2.8826   -5.0652    2.0608 C.3     1  LIG1       -0.0464
     23 C           4.6863   -3.6553   -1.3186 C.3     1  LIG1       -0.0464
     24 C           0.6387   -0.6435   -1.1525 C.2     1  LIG1        0.2429
     25 C          -2.4729   -1.5952   -2.8754 C.3     1  LIG1       -0.0600
     26 C          -3.5865   -2.6321   -0.8959 C.3     1  LIG1       -0.0600
     27 C          -2.4776   -0.4233   -0.6534 C.3     1  LIG1       -0.0600
     28 CA          1.6599   -1.1376    1.0747 C.3     1  LIG1        0.0730
     29 C           1.6534   -0.8208    2.5865 C.3     1  LIG1       -0.0286
     30 C           1.0184    1.1498    0.4664 C.2     1  LIG1        0.2708
     31 CA          1.5842    2.1344   -0.5860 C.3     1  LIG1        0.0579
     32 C           0.2905   -0.8374    3.2874 C.3     1  LIG1       -0.0513
     33 C           1.7640    3.5712   -0.0693 C.3     1  LIG1        0.0261
     34 C           3.1623   -1.1872    0.6154 C.2     1  LIG1        0.0626
     35 C           2.7363    3.9483    1.0221 C.ar    1  LIG1       -0.0158
     36 C          -0.4023   -2.1967    3.2725 C.3     1  LIG1       -0.0558
     37 C           3.8147    3.2691    1.6749 C.ar    1  LIG1        0.0038
     38 C           2.6956    5.2032    1.6039 C.ar    1  LIG1        0.0202
     39 C           4.3856    4.1440    2.6198 C.ar    1  LIG1        0.0598
     40 C          -1.7008   -2.1516    4.0636 C.3     1  LIG1       -0.0653
     41 C           4.3844    1.9852    1.5714 C.ar    1  LIG1       -0.0523
     42 C           5.5068    3.7591    3.3907 C.ar    1  LIG1       -0.0371
     43 C           5.4769    1.5934    2.3468 C.ar    1  LIG1       -0.0611
     44 C           3.7696    6.4844    3.4095 C.2     1  LIG1        0.4196
     45 C           6.0402    2.4798    3.2415 C.ar    1  LIG1       -0.0598
     46 C           4.8532    7.4273    5.2746 C.3     1  LIG1        0.0835
     47 H           2.2806   -2.7860   -1.7444 H       1  LIG1        0.1510
     48 H1          2.5829    1.4856   -2.3088 H       1  LIG1        0.2002
     49 H2          3.0954    0.7151   -0.9869 H       1  LIG1        0.2002
     50 H3          3.6326    2.2554   -1.2210 H       1  LIG1        0.2002
     51 H           1.8055   -6.3521    0.7363 H       1  LIG1        0.0498
     52 H           3.1897   -4.6987   -2.4221 H       1  LIG1        0.0498
     53 H           3.6125   -7.7055    1.2520 H       1  LIG1        0.0283
     54 H           4.8111   -6.4482    0.9859 H       1  LIG1        0.0283
     55 H           5.5856   -5.9359   -1.2701 H       1  LIG1        0.0283
     56 H           4.6452   -6.3881   -2.6673 H       1  LIG1        0.0283
     57 H           3.0747   -7.6541   -1.2378 H       1  LIG1        0.0266
     58 H           4.7371   -8.1319   -0.8732 H       1  LIG1        0.0266
     59 HA          0.1775   -2.1150   -2.5941 H       1  LIG1        0.0595
     60 H          -1.0465   -2.5814    0.1454 H       1  LIG1        0.0293
     61 H          -1.2372   -3.6090   -1.2666 H       1  LIG1        0.0293
     62 H           3.8019   -4.4727    2.0990 H       1  LIG1        0.0248
     63 H           2.9026   -5.7818    2.8894 H       1  LIG1        0.0248
     64 H           2.0456   -4.3844    2.2414 H       1  LIG1        0.0248
     65 H           5.1404   -3.6407   -0.3231 H       1  LIG1        0.0248
     66 H           4.2020   -2.6961   -1.4863 H       1  LIG1        0.0248
     67 H           5.4910   -3.7189   -2.0605 H       1  LIG1        0.0248
     68 H          -1.6942   -0.9249   -3.2519 H       1  LIG1        0.0235
     69 H          -3.4375   -1.1553   -3.1541 H       1  LIG1        0.0235
     70 H          -2.3800   -2.5516   -3.4017 H       1  LIG1        0.0235
     71 H          -3.5645   -2.7967    0.1876 H       1  LIG1        0.0235
     72 H          -3.5958   -3.6134   -1.3838 H       1  LIG1        0.0235
     73 H          -4.5334   -2.1361   -1.1381 H       1  LIG1        0.0235
     74 H          -2.2790   -0.5122    0.4205 H       1  LIG1        0.0235
     75 H          -3.4822    0.0011   -0.7671 H       1  LIG1        0.0235
     76 H          -1.7862    0.3120   -1.0699 H       1  LIG1        0.0235
     77 HA          1.2475   -2.1326    0.9633 H       1  LIG1        0.0567
     78 H           2.1358    0.1467    2.7717 H       1  LIG1        0.0287
     79 H           2.2846   -1.5542    3.1070 H       1  LIG1        0.0287
     80 HA          0.8068    2.2399   -1.3517 H       1  LIG1        0.0952
     81 H          -0.3821   -0.0924    2.8552 H       1  LIG1        0.0266
     82 H           0.4525   -0.5373    4.3310 H       1  LIG1        0.0266
     83 H           0.7733    3.9158    0.2657 H       1  LIG1        0.0374
     84 H           2.0083    4.2052   -0.9348 H       1  LIG1        0.0374
     85 H           0.2558   -2.9649    3.6927 H       1  LIG1        0.0263
     86 H          -0.6323   -2.4900    2.2470 H       1  LIG1        0.0263
     87 H           2.0259    6.0356    1.4162 H       1  LIG1        0.0818
     88 H          -1.5065   -1.9430    5.1205 H       1  LIG1        0.0230
     89 H          -2.2220   -3.1110    3.9947 H       1  LIG1        0.0230
     90 H          -2.3685   -1.3738    3.6781 H       1  LIG1        0.0230
     91 H           3.9841    1.2443    0.9064 H       1  LIG1        0.0624
     92 H           5.9674    4.4268    4.1116 H       1  LIG1        0.0638
     93 H           5.8671    0.5808    2.2471 H       1  LIG1        0.0618
     94 H           6.8915    2.1723    3.8436 H       1  LIG1        0.0618
     95 H           5.0981    7.0267    6.2623 H       1  LIG1        0.0661
     96 H           3.9473    8.0339    5.3689 H       1  LIG1        0.0661
     97 H           5.6878    8.0448    4.9319 H       1  LIG1        0.0661
@<TRIPOS>BOND
     1     1    21    2
     2     2    24    2
     3     3    30    2
     4     4    34   ar
     5     5    34   ar
     6     6    44    1
     7     6    46    1
     8     7    44    2
     9     8    13    1
    10     8    14    1
    11     9    21   am
    12    10    24   am
    13    10    30   am
    14    12    39   ar
    15    12    38   ar
    16    12    44   am
    17    13    15    1
    18    13    22    1
    19    14    16    1
    20    14    23    1
    21    15    17    1
    22    16    17    1
    23    18     9    1
    24    18    24    1
    25    18    20    1
    26    19    20    1
    27    19    27    1
    28    19    26    1
    29    19    25    1
    30    21     8   am
    31    28    34    1
    32    28    29    1
    33    28    10    1
    34    29    32    1
    35    31    33    1
    36    31    11    1
    37    31    30    1
    38    32    36    1
    39    33    35    1
    40    35    38   ar
    41    35    37   ar
    42    36    40    1
    43    37    39   ar
    44    37    41   ar
    45    39    42   ar
    46    41    43   ar
    47    42    45   ar
    48    43    45   ar
    49     9    47    1
    50    11    48    1
    51    11    49    1
    52    11    50    1
    53    13    51    1
    54    14    52    1
    55    15    53    1
    56    15    54    1
    57    16    55    1
    58    16    56    1
    59    17    57    1
    60    17    58    1
    61    18    59    1
    62    20    60    1
    63    20    61    1
    64    22    62    1
    65    22    63    1
    66    22    64    1
    67    23    65    1
    68    23    66    1
    69    23    67    1
    70    25    68    1
    71    25    69    1
    72    25    70    1
    73    26    71    1
    74    26    72    1
    75    26    73    1
    76    27    74    1
    77    27    75    1
    78    27    76    1
    79    28    77    1
    80    29    78    1
    81    29    79    1
    82    31    80    1
    83    32    81    1
    84    32    82    1
    85    33    83    1
    86    33    84    1
    87    36    85    1
    88    36    86    1
    89    38    87    1
    90    40    88    1
    91    40    89    1
    92    40    90    1
    93    41    91    1
    94    42    92    1
    95    43    93    1
    96    45    94    1
    97    46    95    1
    98    46    96    1
    99    46    97    1
@<TRIPOS>MOLECULE
23693553
 97 99 0 0 0
SMALL
GASTEIGER

@<TRIPOS>ATOM
      1 O           0.0224    2.6195   -4.0372 O.2     1  LIG1       -0.2526
      2 O           0.1509   -1.4476   -1.3803 O.2     1  LIG1       -0.2731
      3 O           1.0075    1.9172    0.2510 O.2     1  LIG1       -0.2689
      4 O           0.7969   -3.2893    2.1613 O.co2   1  LIG1       -0.5479
      5 OXT        -0.4098   -1.4336    1.6759 O.co2   1  LIG1       -0.5479
      6 O          -1.6975    2.4155    7.2969 O.3     1  LIG1       -0.4515
      7 O           0.0394    2.8697    8.7582 O.2     1  LIG1       -0.2227
      8 N          -1.2808    3.6308   -2.4105 N.am    1  LIG1       -0.2801
      9 N          -0.0896    1.6694   -1.9788 N.am    1  LIG1       -0.2879
     10 N           1.5186   -0.3192    0.0830 N.am    1  LIG1       -0.2273
     11 N           0.6595   -0.0421    3.2176 N.4     1  LIG1        0.2276
     12 N           0.3942    2.7563    6.4784 N.ar    1  LIG1       -0.2526
     13 C          -2.0848    3.4842   -1.1734 C.3     1  LIG1        0.0249
     14 C          -1.3458    4.8678   -3.2182 C.3     1  LIG1        0.0249
     15 C          -2.7608    4.7705   -0.6868 C.3     1  LIG1       -0.0344
     16 C          -1.8250    6.1341   -2.4811 C.3     1  LIG1       -0.0344
     17 C          -1.8894    5.9753   -0.9750 C.3     1  LIG1       -0.0497
     18 CA          0.9421    0.6590   -2.2494 C.3     1  LIG1        0.1019
     19 C           3.3909    0.5115   -3.3051 C.3     1  LIG1       -0.0356
     20 C           2.3369    1.2981   -2.4685 C.3     1  LIG1       -0.0210
     21 C          -0.4357    2.6240   -2.8977 C.2     1  LIG1        0.3033
     22 C          -3.1353    2.3761   -1.2999 C.3     1  LIG1       -0.0464
     23 C          -2.1540    4.6885   -4.5089 C.3     1  LIG1       -0.0464
     24 C           0.8748   -0.4692   -1.1614 C.2     1  LIG1        0.2429
     25 C           4.0916   -0.5369   -2.4405 C.3     1  LIG1       -0.0600
     26 C           2.7897   -0.1886   -4.5343 C.3     1  LIG1       -0.0600
     27 C           4.4609    1.5111   -3.7914 C.3     1  LIG1       -0.0600
     28 CA          1.7954   -1.6030    0.8033 C.3     1  LIG1        0.0730
     29 C           2.7835   -2.5985    0.1610 C.3     1  LIG1       -0.0286
     30 C           1.2549    0.8446    0.8226 C.2     1  LIG1        0.2708
     31 CA          1.4241    0.9423    2.3854 C.3     1  LIG1        0.0579
     32 C           2.2585   -3.5488   -0.9177 C.3     1  LIG1       -0.0513
     33 C           0.9706    2.3677    2.8247 C.3     1  LIG1        0.0261
     34 C           0.5556   -2.2527    1.4901 C.2     1  LIG1        0.0626
     35 C           1.0256    2.5965    4.3052 C.ar    1  LIG1       -0.0158
     36 C           3.3594   -4.4095   -1.5524 C.3     1  LIG1       -0.0558
     37 C           2.1842    2.8455    5.0900 C.ar    1  LIG1        0.0038
     38 C          -0.0480    2.5923    5.1701 C.ar    1  LIG1        0.0202
     39 C           1.7812    2.9299    6.4287 C.ar    1  LIG1        0.0598
     40 C           4.1089   -5.2943   -0.5705 C.3     1  LIG1       -0.0653
     41 C           3.5506    2.9949    4.7709 C.ar    1  LIG1       -0.0523
     42 C           2.7204    3.1431    7.4548 C.ar    1  LIG1       -0.0371
     43 C           4.4807    3.2104    5.7894 C.ar    1  LIG1       -0.0611
     44 C          -0.4138    2.7108    7.6382 C.2     1  LIG1        0.4196
     45 C           4.0687    3.2788    7.1137 C.ar    1  LIG1       -0.0598
     46 C          -2.5659    2.2516    8.4190 C.3     1  LIG1        0.0835
     47 H          -0.0290    2.0309   -1.0385 H       1  LIG1        0.1510
     48 H1          0.2567    0.3022    4.0891 H       1  LIG1        0.2002
     49 H2          1.1756   -0.9018    3.4464 H       1  LIG1        0.2002
     50 H3         -0.1487   -0.4347    2.6547 H       1  LIG1        0.2002
     51 H          -1.3919    3.1982   -0.3749 H       1  LIG1        0.0498
     52 H          -0.3090    5.0698   -3.5239 H       1  LIG1        0.0498
     53 H          -2.9581    4.6969    0.3897 H       1  LIG1        0.0283
     54 H          -3.7372    4.9014   -1.1717 H       1  LIG1        0.0283
     55 H          -2.8240    6.4205   -2.8378 H       1  LIG1        0.0283
     56 H          -1.1719    6.9774   -2.7373 H       1  LIG1        0.0283
     57 H          -0.8871    5.8483   -0.5498 H       1  LIG1        0.0266
     58 H          -2.3265    6.8735   -0.5250 H       1  LIG1        0.0266
     59 HA          0.6228    0.1907   -3.1869 H       1  LIG1        0.0595
     60 H           2.7843    1.5692   -1.5050 H       1  LIG1        0.0293
     61 H           2.1946    2.2604   -2.9755 H       1  LIG1        0.0293
     62 H          -3.8410    2.5940   -2.1084 H       1  LIG1        0.0248
     63 H          -3.7029    2.2746   -0.3680 H       1  LIG1        0.0248
     64 H          -2.6814    1.4039   -1.5124 H       1  LIG1        0.0248
     65 H          -3.1911    4.4163   -4.2896 H       1  LIG1        0.0248
     66 H          -1.7363    3.9085   -5.1515 H       1  LIG1        0.0248
     67 H          -2.1556    5.6172   -5.0913 H       1  LIG1        0.0248
     68 H           4.4531   -0.1086   -1.4993 H       1  LIG1        0.0235
     69 H           4.9518   -0.9789   -2.9555 H       1  LIG1        0.0235
     70 H           3.4031   -1.3487   -2.2155 H       1  LIG1        0.0235
     71 H           2.2233    0.5132   -5.1551 H       1  LIG1        0.0235
     72 H           2.1231   -1.0097   -4.2479 H       1  LIG1        0.0235
     73 H           3.5763   -0.6285   -5.1588 H       1  LIG1        0.0235
     74 H           4.0275    2.2515   -4.4733 H       1  LIG1        0.0235
     75 H           5.2676    1.0008   -4.3301 H       1  LIG1        0.0235
     76 H           4.9104    2.0500   -2.9499 H       1  LIG1        0.0235
     77 HA          2.3859   -1.2697    1.6679 H       1  LIG1        0.0567
     78 H           3.1666   -3.2275    0.9764 H       1  LIG1        0.0287
     79 H           3.6571   -2.0505   -0.2025 H       1  LIG1        0.0287
     80 HA          2.4825    0.8028    2.6321 H       1  LIG1        0.0952
     81 H           1.8022   -2.9924   -1.7370 H       1  LIG1        0.0266
     82 H           1.4832   -4.1999   -0.4983 H       1  LIG1        0.0266
     83 H          -0.0586    2.5454    2.4805 H       1  LIG1        0.0374
     84 H           1.5915    3.1274    2.3315 H       1  LIG1        0.0374
     85 H           4.0775   -3.7638   -2.0715 H       1  LIG1        0.0263
     86 H           2.9006   -5.0455   -2.3191 H       1  LIG1        0.0263
     87 H          -1.1073    2.4705    4.9721 H       1  LIG1        0.0818
     88 H           4.7074   -4.7000    0.1265 H       1  LIG1        0.0230
     89 H           4.7962   -5.9532   -1.1111 H       1  LIG1        0.0230
     90 H           3.4189   -5.9186    0.0046 H       1  LIG1        0.0230
     91 H           3.8916    2.9584    3.7399 H       1  LIG1        0.0624
     92 H           2.4217    3.2065    8.4983 H       1  LIG1        0.0638
     93 H           5.5335    3.3303    5.5440 H       1  LIG1        0.0618
     94 H           4.8028    3.4463    7.8993 H       1  LIG1        0.0618
     95 H          -3.5450    1.9375    8.0462 H       1  LIG1        0.0661
     96 H          -2.6819    3.2001    8.9514 H       1  LIG1        0.0661
     97 H          -2.1878    1.4728    9.0890 H       1  LIG1        0.0661
@<TRIPOS>BOND
     1     1    21    2
     2     2    24    2
     3     3    30    2
     4     4    34   ar
     5     5    34   ar
     6     6    44    1
     7     6    46    1
     8     7    44    2
     9     8    13    1
    10     8    14    1
    11     9    21   am
    12    10    24   am
    13    10    30   am
    14    12    39   ar
    15    12    38   ar
    16    12    44   am
    17    13    15    1
    18    13    22    1
    19    14    16    1
    20    14    23    1
    21    15    17    1
    22    16    17    1
    23    18     9    1
    24    18    24    1
    25    18    20    1
    26    19    20    1
    27    19    27    1
    28    19    26    1
    29    19    25    1
    30    21     8   am
    31    28    34    1
    32    28    29    1
    33    28    10    1
    34    29    32    1
    35    31    33    1
    36    31    11    1
    37    31    30    1
    38    32    36    1
    39    33    35    1
    40    35    38   ar
    41    35    37   ar
    42    36    40    1
    43    37    39   ar
    44    37    41   ar
    45    39    42   ar
    46    41    43   ar
    47    42    45   ar
    48    43    45   ar
    49     9    47    1
    50    11    48    1
    51    11    49    1
    52    11    50    1
    53    13    51    1
    54    14    52    1
    55    15    53    1
    56    15    54    1
    57    16    55    1
    58    16    56    1
    59    17    57    1
    60    17    58    1
    61    18    59    1
    62    20    60    1
    63    20    61    1
    64    22    62    1
    65    22    63    1
    66    22    64    1
    67    23    65    1
    68    23    66    1
    69    23    67    1
    70    25    68    1
    71    25    69    1
    72    25    70    1
    73    26    71    1
    74    26    72    1
    75    26    73    1
    76    27    74    1
    77    27    75    1
    78    27    76    1
    79    28    77    1
    80    29    78    1
    81    29    79    1
    82    31    80    1
    83    32    81    1
    84    32    82    1
    85    33    83    1
    86    33    84    1
    87    36    85    1
    88    36    86    1
    89    38    87    1
    90    40    88    1
    91    40    89    1
    92    40    90    1
    93    41    91    1
    94    42    92    1
    95    43    93    1
    96    45    94    1
    97    46    95    1
    98    46    96    1
    99    46    97    1
@<TRIPOS>MOLECULE
23693553
 97 99 0 0 0
SMALL
GASTEIGER

@<TRIPOS>ATOM
      1 O          -1.8720    1.3524   -1.2157 O.2     1  LIG1       -0.2526
      2 O           0.2792   -1.6709   -1.5882 O.2     1  LIG1       -0.2731
      3 O           1.8804    1.8213   -0.0116 O.2     1  LIG1       -0.2689
      4 O           0.8972   -2.7666    2.8631 O.co2   1  LIG1       -0.5479
      5 OXT        -0.3422   -0.9943    2.1641 O.co2   1  LIG1       -0.5479
      6 O           7.7280    2.0333    3.7937 O.3     1  LIG1       -0.4515
      7 O           8.5138    2.6341    1.7041 O.2     1  LIG1       -0.2227
      8 N          -1.1911    3.4800   -0.5589 N.am    1  LIG1       -0.2801
      9 N           0.2117    1.9770   -1.7335 N.am    1  LIG1       -0.2879
     10 N           1.2552   -0.3946    0.0617 N.am    1  LIG1       -0.2273
     11 N           1.5764    2.5588    2.4192 N.4     1  LIG1        0.2276
     12 N           6.3246    2.0634    2.0421 N.ar    1  LIG1       -0.2526
     13 C          -0.3268    4.6681   -0.8757 C.3     1  LIG1        0.0249
     14 C          -2.6359    3.6739   -0.2313 C.3     1  LIG1        0.0249
     15 C          -0.9527    6.0316   -0.5393 C.3     1  LIG1       -0.0344
     16 C          -3.1200    5.1105   -0.0119 C.3     1  LIG1       -0.0344
     17 C          -2.4089    6.0918   -0.9129 C.3     1  LIG1       -0.0497
     18 CA          0.5026    0.6394   -2.2483 C.3     1  LIG1        0.1019
     19 C           1.8785    1.4579   -4.4192 C.3     1  LIG1       -0.0356
     20 C           1.8071    0.6430   -3.0895 C.3     1  LIG1       -0.0210
     21 C          -1.0013    2.2173   -1.1701 C.2     1  LIG1        0.3033
     22 C           1.0259    4.7151   -0.1438 C.3     1  LIG1       -0.0464
     23 C          -3.0690    2.8384    0.9889 C.3     1  LIG1       -0.0464
     24 C           0.6083   -0.5440   -1.1870 C.2     1  LIG1        0.2429
     25 C           1.7140    2.9686   -4.1889 C.3     1  LIG1       -0.0600
     26 C           3.2791    1.2362   -5.0394 C.3     1  LIG1       -0.0600
     27 C           0.8314    0.9841   -5.4379 C.3     1  LIG1       -0.0600
     28 CA          1.5337   -1.6341    0.8685 C.3     1  LIG1        0.0730
     29 C           2.1037   -2.8479    0.1057 C.3     1  LIG1       -0.0286
     30 C           1.5451    0.8278    0.6539 C.2     1  LIG1        0.2708
     31 CA          1.6759    1.0455    2.1886 C.3     1  LIG1        0.0579
     32 C           3.2390   -3.5427    0.8906 C.3     1  LIG1       -0.0513
     33 C           3.0097    0.5972    2.8066 C.3     1  LIG1        0.0261
     34 C           0.5407   -1.8930    2.0328 C.2     1  LIG1        0.0626
     35 C           4.2635    1.1266    2.1546 C.ar    1  LIG1       -0.0158
     36 C           3.8708   -4.7164    0.1441 C.3     1  LIG1       -0.0558
     37 C           4.7981    0.9667    0.8220 C.ar    1  LIG1        0.0038
     38 C           5.2103    1.8531    2.8492 C.ar    1  LIG1        0.0202
     39 C           5.9620    1.7387    0.7394 C.ar    1  LIG1        0.0598
     40 C           4.6900   -4.2895   -1.0638 C.3     1  LIG1       -0.0653
     41 C           4.4440    0.2501   -0.3422 C.ar    1  LIG1       -0.0523
     42 C           6.6605    1.9219   -0.4747 C.ar    1  LIG1       -0.0371
     43 C           5.1295    0.4175   -1.5495 C.ar    1  LIG1       -0.0611
     44 C           7.6158    2.3596    2.4813 C.2     1  LIG1        0.4196
     45 C           6.2085    1.2746   -1.6219 C.ar    1  LIG1       -0.0598
     46 C           9.0135    1.4854    4.0826 C.3     1  LIG1        0.0835
     47 H           0.9986    2.3982   -1.2685 H       1  LIG1        0.1510
     48 H1          1.7600    2.8366    3.3847 H       1  LIG1        0.2002
     49 H2          0.6328    2.8591    2.1408 H       1  LIG1        0.2002
     50 H3          2.2431    3.0033    1.7711 H       1  LIG1        0.2002
     51 H          -0.1359    4.6342   -1.9546 H       1  LIG1        0.0498
     52 H          -3.1968    3.3102   -1.1046 H       1  LIG1        0.0498
     53 H          -0.3987    6.8278   -1.0509 H       1  LIG1        0.0283
     54 H          -0.8539    6.2360    0.5377 H       1  LIG1        0.0283
     55 H          -2.9738    5.4055    1.0355 H       1  LIG1        0.0283
     56 H          -4.2001    5.1601   -0.1958 H       1  LIG1        0.0283
     57 H          -2.5517    5.8469   -1.9708 H       1  LIG1        0.0266
     58 H          -2.7943    7.1021   -0.7439 H       1  LIG1        0.0266
     59 HA         -0.3375    0.3616   -2.8982 H       1  LIG1        0.0595
     60 H           2.0610   -0.4005   -3.3259 H       1  LIG1        0.0293
     61 H           2.6125    1.0057   -2.4450 H       1  LIG1        0.0293
     62 H           0.8863    4.6340    0.9374 H       1  LIG1        0.0248
     63 H           1.5353    5.6698   -0.3261 H       1  LIG1        0.0248
     64 H           1.7366    3.9687   -0.4761 H       1  LIG1        0.0248
     65 H          -2.5470    3.1668    1.8938 H       1  LIG1        0.0248
     66 H          -2.8675    1.7701    0.8743 H       1  LIG1        0.0248
     67 H          -4.1471    2.9431    1.1572 H       1  LIG1        0.0248
     68 H           0.6906    3.2292   -3.9068 H       1  LIG1        0.0235
     69 H           1.9398    3.5332   -5.1017 H       1  LIG1        0.0235
     70 H           2.3935    3.3257   -3.4070 H       1  LIG1        0.0235
     71 H           3.4576    0.1769   -5.2556 H       1  LIG1        0.0235
     72 H           4.0706    1.5792   -4.3639 H       1  LIG1        0.0235
     73 H           3.3912    1.7875   -5.9809 H       1  LIG1        0.0235
     74 H           0.9547   -0.0799   -5.6679 H       1  LIG1        0.0235
     75 H           0.9277    1.5358   -6.3816 H       1  LIG1        0.0235
     76 H          -0.1888    1.1394   -5.0750 H       1  LIG1        0.0235
     77 HA          2.4160   -1.3279    1.4177 H       1  LIG1        0.0567
     78 H           2.5200   -2.5131   -0.8495 H       1  LIG1        0.0287
     79 H           1.3095   -3.5712   -0.1049 H       1  LIG1        0.0287
     80 HA          0.8303    0.6882    2.7619 H       1  LIG1        0.0952
     81 H           2.8520   -3.9210    1.8420 H       1  LIG1        0.0266
     82 H           4.0243   -2.8168    1.1408 H       1  LIG1        0.0266
     83 H           3.0927   -0.4836    2.9254 H       1  LIG1        0.0374
     84 H           3.0048    0.9540    3.8490 H       1  LIG1        0.0374
     85 H           3.0934   -5.4239   -0.1635 H       1  LIG1        0.0263
     86 H           4.5330   -5.2506    0.8368 H       1  LIG1        0.0263
     87 H           5.2491    2.1321    3.8953 H       1  LIG1        0.0818
     88 H           4.0702   -3.8030   -1.8217 H       1  LIG1        0.0230
     89 H           5.1558   -5.1648   -1.5272 H       1  LIG1        0.0230
     90 H           5.4867   -3.5970   -0.7728 H       1  LIG1        0.0230
     91 H           3.6326   -0.4594   -0.3490 H       1  LIG1        0.0624
     92 H           7.5671    2.5197   -0.5246 H       1  LIG1        0.0638
     93 H           4.8064   -0.1292   -2.4332 H       1  LIG1        0.0618
     94 H           6.7375    1.3998   -2.5635 H       1  LIG1        0.0618
     95 H           9.0438    1.2296    5.1429 H       1  LIG1        0.0661
     96 H           9.8117    2.1998    3.8606 H       1  LIG1        0.0661
     97 H           9.1531    0.5627    3.5044 H       1  LIG1        0.0661
@<TRIPOS>BOND
     1     1    21    2
     2     2    24    2
     3     3    30    2
     4     4    34   ar
     5     5    34   ar
     6     6    44    1
     7     6    46    1
     8     7    44    2
     9     8    13    1
    10     8    14    1
    11     9    21   am
    12    10    24   am
    13    10    30   am
    14    12    39   ar
    15    12    38   ar
    16    12    44   am
    17    13    15    1
    18    13    22    1
    19    14    16    1
    20    14    23    1
    21    15    17    1
    22    16    17    1
    23    18     9    1
    24    18    24    1
    25    18    20    1
    26    19    20    1
    27    19    27    1
    28    19    26    1
    29    19    25    1
    30    21     8   am
    31    28    34    1
    32    28    29    1
    33    28    10    1
    34    29    32    1
    35    31    33    1
    36    31    11    1
    37    31    30    1
    38    32    36    1
    39    33    35    1
    40    35    38   ar
    41    35    37   ar
    42    36    40    1
    43    37    39   ar
    44    37    41   ar
    45    39    42   ar
    46    41    43   ar
    47    42    45   ar
    48    43    45   ar
    49     9    47    1
    50    11    48    1
    51    11    49    1
    52    11    50    1
    53    13    51    1
    54    14    52    1
    55    15    53    1
    56    15    54    1
    57    16    55    1
    58    16    56    1
    59    17    57    1
    60    17    58    1
    61    18    59    1
    62    20    60    1
    63    20    61    1
    64    22    62    1
    65    22    63    1
    66    22    64    1
    67    23    65    1
    68    23    66    1
    69    23    67    1
    70    25    68    1
    71    25    69    1
    72    25    70    1
    73    26    71    1
    74    26    72    1
    75    26    73    1
    76    27    74    1
    77    27    75    1
    78    27    76    1
    79    28    77    1
    80    29    78    1
    81    29    79    1
    82    31    80    1
    83    32    81    1
    84    32    82    1
    85    33    83    1
    86    33    84    1
    87    36    85    1
    88    36    86    1
    89    38    87    1
    90    40    88    1
    91    40    89    1
    92    40    90    1
    93    41    91    1
    94    42    92    1
    95    43    93    1
    96    45    94    1
    97    46    95    1
    98    46    96    1
    99    46    97    1
@<TRIPOS>MOLECULE
23693553
 97 99 0 0 0
SMALL
GASTEIGER

@<TRIPOS>ATOM
      1 O           2.6764    2.5082   -3.0207 O.2     1  LIG1       -0.2526
      2 O           0.6815   -1.6028   -1.8550 O.2     1  LIG1       -0.2731
      3 O          -0.3862    1.1344    0.4686 O.2     1  LIG1       -0.2689
      4 O           3.6705   -1.0772    2.1734 O.co2   1  LIG1       -0.5479
      5 OXT         4.0770   -0.3872    0.0520 O.co2   1  LIG1       -0.5479
      6 O           1.0504    0.1996    7.4096 O.3     1  LIG1       -0.4515
      7 O           1.4249    2.1028    8.6747 O.2     1  LIG1       -0.2227
      8 N           3.3524    1.0787   -4.7098 N.am    1  LIG1       -0.2801
      9 N           1.5442    0.5738   -3.3070 N.am    1  LIG1       -0.2879
     10 N           1.2326   -0.3614    0.0222 N.am    1  LIG1       -0.2273
     11 N           2.0760    0.4864    3.0595 N.4     1  LIG1        0.2276
     12 N           0.8765    2.2365    6.4337 N.ar    1  LIG1       -0.2526
     13 C           3.2897   -0.2412   -5.3771 C.3     1  LIG1        0.0249
     14 C           4.3226    2.0977   -5.1593 C.3     1  LIG1        0.0249
     15 C           3.8746   -0.2864   -6.7971 C.3     1  LIG1       -0.0344
     16 C           4.7977    1.9647   -6.6158 C.3     1  LIG1       -0.0344
     17 C           3.8877    1.0822   -7.4482 C.3     1  LIG1       -0.0497
     18 CA          0.6503    0.7877   -2.1674 C.3     1  LIG1        0.1019
     19 C          -1.2340    2.2017   -3.3857 C.3     1  LIG1       -0.0356
     20 C          -0.8106    0.8993   -2.6418 C.3     1  LIG1       -0.0210
     21 C           2.5565    1.4378   -3.6176 C.2     1  LIG1        0.3033
     22 C           3.9379   -1.3356   -4.5208 C.3     1  LIG1       -0.0464
     23 C           5.5303    2.1960   -4.2206 C.3     1  LIG1       -0.0464
     24 C           0.8344   -0.4964   -1.3177 C.2     1  LIG1        0.2429
     25 C          -0.8744    3.4581   -2.5768 C.3     1  LIG1       -0.0600
     26 C          -0.6098    2.3039   -4.7885 C.3     1  LIG1       -0.0600
     27 C          -2.7670    2.1622   -3.5636 C.3     1  LIG1       -0.0600
     28 CA          2.0355   -1.5163    0.5198 C.3     1  LIG1        0.0730
     29 C           1.2988   -2.3650    1.5806 C.3     1  LIG1       -0.0286
     30 C           0.7196    0.6674    0.7912 C.2     1  LIG1        0.2708
     31 CA          1.4430    1.3403    2.0143 C.3     1  LIG1        0.0579
     32 C          -0.1676   -2.6826    1.2675 C.3     1  LIG1       -0.0513
     33 C           0.3930    2.2678    2.7357 C.3     1  LIG1        0.0261
     34 C           3.4513   -1.0429    0.9191 C.2     1  LIG1        0.0626
     35 C           0.6258    2.5613    4.2004 C.ar    1  LIG1       -0.0158
     36 C          -0.8675   -3.4360    2.4058 C.3     1  LIG1       -0.0558
     37 C           0.9512    3.8098    4.8111 C.ar    1  LIG1        0.0038
     38 C           0.4582    1.6649    5.2390 C.ar    1  LIG1        0.0202
     39 C           1.0639    3.5970    6.1939 C.ar    1  LIG1        0.0598
     40 C          -1.0648   -2.5940    3.6613 C.3     1  LIG1       -0.0653
     41 C           1.1435    5.1152    4.3095 C.ar    1  LIG1       -0.0523
     42 C           1.3547    4.6529    7.0780 C.ar    1  LIG1       -0.0371
     43 C           1.4210    6.1667    5.1894 C.ar    1  LIG1       -0.0611
     44 C           1.1133    1.5397    7.6398 C.2     1  LIG1        0.4196
     45 C           1.5221    5.9365    6.5552 C.ar    1  LIG1       -0.0598
     46 C           1.4888   -0.6044    8.5067 C.3     1  LIG1        0.0835
     47 H           1.6084   -0.3852   -3.6126 H       1  LIG1        0.1510
     48 H1          2.5384    1.0534    3.7758 H       1  LIG1        0.2002
     49 H2          2.8822   -0.0970    2.7255 H       1  LIG1        0.2002
     50 H3          1.4436   -0.1667    3.5189 H       1  LIG1        0.2002
     51 H           2.2259   -0.4839   -5.4882 H       1  LIG1        0.0498
     52 H           3.7966    3.0611   -5.1006 H       1  LIG1        0.0498
     53 H           3.2964   -0.9898   -7.4088 H       1  LIG1        0.0283
     54 H           4.9000   -0.6796   -6.7777 H       1  LIG1        0.0283
     55 H           5.8140    1.5492   -6.6473 H       1  LIG1        0.0283
     56 H           4.8708    2.9604   -7.0701 H       1  LIG1        0.0283
     57 H           2.8768    1.5011   -7.5069 H       1  LIG1        0.0266
     58 H           4.2742    1.0068   -8.4705 H       1  LIG1        0.0266
     59 HA          0.9686    1.6645   -1.6007 H       1  LIG1        0.0595
     60 H          -1.4620    0.7827   -1.7660 H       1  LIG1        0.0293
     61 H          -1.0456    0.0389   -3.2852 H       1  LIG1        0.0293
     62 H           5.0085   -1.1466   -4.3873 H       1  LIG1        0.0248
     63 H           3.8213   -2.3156   -4.9964 H       1  LIG1        0.0248
     64 H           3.4951   -1.3968   -3.5225 H       1  LIG1        0.0248
     65 H           6.0892    1.2549   -4.1978 H       1  LIG1        0.0248
     66 H           5.2291    2.4248   -3.1935 H       1  LIG1        0.0248
     67 H           6.2084    2.9915   -4.5489 H       1  LIG1        0.0248
     68 H          -1.2766    3.4017   -1.5595 H       1  LIG1        0.0235
     69 H          -1.2827    4.3597   -3.0476 H       1  LIG1        0.0235
     70 H           0.2079    3.6002   -2.5035 H       1  LIG1        0.0235
     71 H          -0.7234    1.3669   -5.3448 H       1  LIG1        0.0235
     72 H           0.4522    2.5533   -4.7515 H       1  LIG1        0.0235
     73 H          -1.0887    3.0961   -5.3760 H       1  LIG1        0.0235
     74 H          -3.0735    1.2866   -4.1469 H       1  LIG1        0.0235
     75 H          -3.1299    3.0541   -4.0875 H       1  LIG1        0.0235
     76 H          -3.2780    2.1179   -2.5955 H       1  LIG1        0.0235
     77 HA          2.2366   -2.1982   -0.3177 H       1  LIG1        0.0567
     78 H           1.3469   -1.8866    2.5557 H       1  LIG1        0.0287
     79 H           1.8467   -3.3091    1.7037 H       1  LIG1        0.0287
     80 HA          2.2554    1.9582    1.6156 H       1  LIG1        0.0952
     81 H          -0.2148   -3.2925    0.3580 H       1  LIG1        0.0266
     82 H          -0.7320   -1.7656    1.0680 H       1  LIG1        0.0266
     83 H          -0.6058    1.8118    2.6886 H       1  LIG1        0.0374
     84 H           0.3167    3.2061    2.1718 H       1  LIG1        0.0374
     85 H          -0.3067   -4.3430    2.6583 H       1  LIG1        0.0263
     86 H          -1.8538   -3.7584    2.0518 H       1  LIG1        0.0263
     87 H           0.1187    0.6365    5.2370 H       1  LIG1        0.0818
     88 H          -0.1127   -2.3480    4.1403 H       1  LIG1        0.0230
     89 H          -1.6652   -3.1448    4.3928 H       1  LIG1        0.0230
     90 H          -1.5863   -1.6590    3.4320 H       1  LIG1        0.0230
     91 H           1.0553    5.3233    3.2464 H       1  LIG1        0.0624
     92 H           1.4409    4.4924    8.1501 H       1  LIG1        0.0638
     93 H           1.5526    7.1744    4.8015 H       1  LIG1        0.0618
     94 H           1.7350    6.7639    7.2292 H       1  LIG1        0.0618
     95 H           1.6900   -1.6102    8.1254 H       1  LIG1        0.0661
     96 H           0.7005   -0.6655    9.2615 H       1  LIG1        0.0661
     97 H           2.4160   -0.2171    8.9419 H       1  LIG1        0.0661
@<TRIPOS>BOND
     1     1    21    2
     2     2    24    2
     3     3    30    2
     4     4    34   ar
     5     5    34   ar
     6     6    44    1
     7     6    46    1
     8     7    44    2
     9     8    13    1
    10     8    14    1
    11     9    21   am
    12    10    24   am
    13    10    30   am
    14    12    39   ar
    15    12    38   ar
    16    12    44   am
    17    13    15    1
    18    13    22    1
    19    14    16    1
    20    14    23    1
    21    15    17    1
    22    16    17    1
    23    18     9    1
    24    18    24    1
    25    18    20    1
    26    19    20    1
    27    19    27    1
    28    19    26    1
    29    19    25    1
    30    21     8   am
    31    28    34    1
    32    28    29    1
    33    28    10    1
    34    29    32    1
    35    31    33    1
    36    31    11    1
    37    31    30    1
    38    32    36    1
    39    33    35    1
    40    35    38   ar
    41    35    37   ar
    42    36    40    1
    43    37    39   ar
    44    37    41   ar
    45    39    42   ar
    46    41    43   ar
    47    42    45   ar
    48    43    45   ar
    49     9    47    1
    50    11    48    1
    51    11    49    1
    52    11    50    1
    53    13    51    1
    54    14    52    1
    55    15    53    1
    56    15    54    1
    57    16    55    1
    58    16    56    1
    59    17    57    1
    60    17    58    1
    61    18    59    1
    62    20    60    1
    63    20    61    1
    64    22    62    1
    65    22    63    1
    66    22    64    1
    67    23    65    1
    68    23    66    1
    69    23    67    1
    70    25    68    1
    71    25    69    1
    72    25    70    1
    73    26    71    1
    74    26    72    1
    75    26    73    1
    76    27    74    1
    77    27    75    1
    78    27    76    1
    79    28    77    1
    80    29    78    1
    81    29    79    1
    82    31    80    1
    83    32    81    1
    84    32    82    1
    85    33    83    1
    86    33    84    1
    87    36    85    1
    88    36    86    1
    89    38    87    1
    90    40    88    1
    91    40    89    1
    92    40    90    1
    93    41    91    1
    94    42    92    1
    95    43    93    1
    96    45    94    1
    97    46    95    1
    98    46    96    1
    99    46    97    1
@<TRIPOS>MOLECULE
23693553
 97 99 0 0 0
SMALL
GASTEIGER

@<TRIPOS>ATOM
      1 O           2.7126   -2.1101   -3.0108 O.2     1  LIG1       -0.2526
      2 O           0.4878    0.2811   -2.0461 O.2     1  LIG1       -0.2731
      3 O           0.6914    1.5698    1.5092 O.2     1  LIG1       -0.2689
      4 O           4.3316   -1.6448    1.1869 O.co2   1  LIG1       -0.5479
      5 OXT         3.6738   -0.2794   -0.5104 O.co2   1  LIG1       -0.5479
      6 O           4.6825    6.4066    4.4528 O.3     1  LIG1       -0.4515
      7 O           3.0080    7.5125    3.3077 O.2     1  LIG1       -0.2227
      8 N           3.6271   -3.9149   -1.8651 N.am    1  LIG1       -0.2801
      9 N           1.5289   -3.0051   -1.3130 N.am    1  LIG1       -0.2879
     10 N           1.1571   -0.1831    0.0969 N.am    1  LIG1       -0.2273
     11 N           2.8376    1.7954   -1.4325 N.4     1  LIG1        0.2276
     12 N           3.6384    5.3991    2.6813 N.ar    1  LIG1       -0.2526
     13 C           3.4722   -5.0691   -0.9357 C.3     1  LIG1        0.0249
     14 C           4.8667   -3.7527   -2.6622 C.3     1  LIG1        0.0249
     15 C           4.5022   -6.2034   -1.0817 C.3     1  LIG1       -0.0344
     16 C           5.8365   -4.9417   -2.6652 C.3     1  LIG1       -0.0344
     17 C           5.1226   -6.2589   -2.4581 C.3     1  LIG1       -0.0497
     18 CA          0.4224   -2.0640   -1.5199 C.3     1  LIG1        0.1019
     19 C          -2.2063   -1.8867   -1.0676 C.3     1  LIG1       -0.0356
     20 C          -0.8310   -2.5559   -0.7594 C.3     1  LIG1       -0.0210
     21 C           2.6311   -2.9653   -2.1297 C.2     1  LIG1        0.3033
     22 C           3.4392   -4.6741    0.5442 C.3     1  LIG1       -0.0464
     23 C           5.6466   -2.4895   -2.2691 C.3     1  LIG1       -0.0464
     24 C           0.7554   -0.5741   -1.1861 C.2     1  LIG1        0.2429
     25 C          -2.3557   -0.5265   -0.3639 C.3     1  LIG1       -0.0600
     26 C          -2.4441   -1.7106   -2.5758 C.3     1  LIG1       -0.0600
     27 C          -3.3123   -2.8137   -0.5143 C.3     1  LIG1       -0.0600
     28 CA          1.9788   -1.0936    0.9536 C.3     1  LIG1        0.0730
     29 C           1.9557   -0.8504    2.4760 C.3     1  LIG1       -0.0286
     30 C           1.1863    1.1765    0.4481 C.2     1  LIG1        0.2708
     31 CA          1.6725    2.2133   -0.5966 C.3     1  LIG1        0.0579
     32 C           0.5982   -1.1521    3.1171 C.3     1  LIG1       -0.0513
     33 C           1.8373    3.6452   -0.0556 C.3     1  LIG1        0.0261
     34 C           3.4784   -1.0392    0.4985 C.2     1  LIG1        0.0626
     35 C           2.7876    4.0333    1.0519 C.ar    1  LIG1       -0.0158
     36 C           0.6021   -0.9021    4.6289 C.3     1  LIG1       -0.0558
     37 C           3.8914    3.3826    1.6864 C.ar    1  LIG1        0.0038
     38 C           2.6927    5.2652    1.6759 C.ar    1  LIG1        0.0202
     39 C           4.4055    4.2331    2.6836 C.ar    1  LIG1        0.0598
     40 C           1.4547   -1.8965    5.4053 C.3     1  LIG1       -0.0653
     41 C           4.5255    2.1385    1.5251 C.ar    1  LIG1       -0.0523
     42 C           5.5124    3.8458    3.4750 C.ar    1  LIG1       -0.0371
     43 C           5.6016    1.7400    2.3180 C.ar    1  LIG1       -0.0611
     44 C           3.7351    6.5468    3.5008 C.2     1  LIG1        0.4196
     45 C           6.0945    2.5928    3.2833 C.ar    1  LIG1       -0.0598
     46 C           4.8379    7.5100    5.3475 C.3     1  LIG1        0.0835
     47 H           1.2816   -3.9251   -0.9905 H       1  LIG1        0.1510
     48 H1          2.5383    1.4758   -2.3613 H       1  LIG1        0.2002
     49 H2          3.2634    0.9023   -1.0546 H       1  LIG1        0.2002
     50 H3          3.6209    2.4468   -1.4858 H       1  LIG1        0.2002
     51 H           2.4993   -5.5121   -1.1841 H       1  LIG1        0.0498
     52 H           4.5366   -3.6224   -3.7023 H       1  LIG1        0.0498
     53 H           4.0267   -7.1625   -0.8413 H       1  LIG1        0.0283
     54 H           5.3072   -6.0808   -0.3427 H       1  LIG1        0.0283
     55 H           6.5915   -4.8180   -1.8763 H       1  LIG1        0.0283
     56 H           6.3915   -4.9592   -3.6109 H       1  LIG1        0.0283
     57 H           4.3642   -6.4286   -3.2295 H       1  LIG1        0.0266
     58 H           5.8413   -7.0846   -2.5081 H       1  LIG1        0.0266
     59 HA          0.2150   -2.1026   -2.5966 H       1  LIG1        0.0595
     60 H          -0.6486   -2.5110    0.3222 H       1  LIG1        0.0293
     61 H          -0.9347   -3.6275   -0.9866 H       1  LIG1        0.0293
     62 H           4.3712   -4.1820    0.8365 H       1  LIG1        0.0248
     63 H           3.3172   -5.5603    1.1779 H       1  LIG1        0.0248
     64 H           2.6120   -4.0091    0.7843 H       1  LIG1        0.0248
     65 H           5.9190   -2.5106   -1.2087 H       1  LIG1        0.0248
     66 H           5.0685   -1.5788   -2.4455 H       1  LIG1        0.0248
     67 H           6.5663   -2.4020   -2.8580 H       1  LIG1        0.0248
     68 H          -2.0966   -0.5982    0.6980 H       1  LIG1        0.0235
     69 H          -3.3890   -0.1644   -0.4261 H       1  LIG1        0.0235
     70 H          -1.7315    0.2472   -0.8148 H       1  LIG1        0.0235
     71 H          -2.3139   -2.6583   -3.1098 H       1  LIG1        0.0235
     72 H          -1.7595   -0.9780   -3.0143 H       1  LIG1        0.0235
     73 H          -3.4616   -1.3544   -2.7755 H       1  LIG1        0.0235
     74 H          -3.2909   -3.7936   -1.0051 H       1  LIG1        0.0235
     75 H          -4.3089   -2.3875   -0.6782 H       1  LIG1        0.0235
     76 H          -3.1911   -2.9742    0.5628 H       1  LIG1        0.0235
     77 HA          1.6237   -2.1098    0.8109 H       1  LIG1        0.0567
     78 H           2.2807    0.1671    2.7206 H       1  LIG1        0.0287
     79 H           2.6932   -1.5098    2.9476 H       1  LIG1        0.0287
     80 HA          0.8513    2.3245   -1.3142 H       1  LIG1        0.0952
     81 H           0.3176   -2.1936    2.9183 H       1  LIG1        0.0266
     82 H          -0.1783   -0.5272    2.6644 H       1  LIG1        0.0266
     83 H           0.8381    3.9622    0.2828 H       1  LIG1        0.0374
     84 H           2.0681    4.2993   -0.9090 H       1  LIG1        0.0374
     85 H          -0.4282   -0.9689    4.9969 H       1  LIG1        0.0263
     86 H           0.9493    0.1167    4.8383 H       1  LIG1        0.0263
     87 H           1.9951    6.0779    1.5077 H       1  LIG1        0.0818
     88 H           1.1332   -2.9246    5.2099 H       1  LIG1        0.0230
     89 H           1.3630   -1.7119    6.4804 H       1  LIG1        0.0230
     90 H           2.5144   -1.8120    5.1478 H       1  LIG1        0.0230
     91 H           4.1898    1.4420    0.7852 H       1  LIG1        0.0624
     92 H           5.9265    4.4907    4.2429 H       1  LIG1        0.0638
     93 H           6.0362    0.7516    2.1702 H       1  LIG1        0.0618
     94 H           6.9348    2.2829    3.8990 H       1  LIG1        0.0618
     95 H           5.1107    7.1100    6.3286 H       1  LIG1        0.0661
     96 H           3.9231    8.0988    5.4622 H       1  LIG1        0.0661
     97 H           5.6540    8.1444    4.9908 H       1  LIG1        0.0661
@<TRIPOS>BOND
     1     1    21    2
     2     2    24    2
     3     3    30    2
     4     4    34   ar
     5     5    34   ar
     6     6    44    1
     7     6    46    1
     8     7    44    2
     9     8    13    1
    10     8    14    1
    11     9    21   am
    12    10    24   am
    13    10    30   am
    14    12    39   ar
    15    12    38   ar
    16    12    44   am
    17    13    15    1
    18    13    22    1
    19    14    16    1
    20    14    23    1
    21    15    17    1
    22    16    17    1
    23    18     9    1
    24    18    24    1
    25    18    20    1
    26    19    20    1
    27    19    27    1
    28    19    26    1
    29    19    25    1
    30    21     8   am
    31    28    34    1
    32    28    29    1
    33    28    10    1
    34    29    32    1
    35    31    33    1
    36    31    11    1
    37    31    30    1
    38    32    36    1
    39    33    35    1
    40    35    38   ar
    41    35    37   ar
    42    36    40    1
    43    37    39   ar
    44    37    41   ar
    45    39    42   ar
    46    41    43   ar
    47    42    45   ar
    48    43    45   ar
    49     9    47    1
    50    11    48    1
    51    11    49    1
    52    11    50    1
    53    13    51    1
    54    14    52    1
    55    15    53    1
    56    15    54    1
    57    16    55    1
    58    16    56    1
    59    17    57    1
    60    17    58    1
    61    18    59    1
    62    20    60    1
    63    20    61    1
    64    22    62    1
    65    22    63    1
    66    22    64    1
    67    23    65    1
    68    23    66    1
    69    23    67    1
    70    25    68    1
    71    25    69    1
    72    25    70    1
    73    26    71    1
    74    26    72    1
    75    26    73    1
    76    27    74    1
    77    27    75    1
    78    27    76    1
    79    28    77    1
    80    29    78    1
    81    29    79    1
    82    31    80    1
    83    32    81    1
    84    32    82    1
    85    33    83    1
    86    33    84    1
    87    36    85    1
    88    36    86    1
    89    38    87    1
    90    40    88    1
    91    40    89    1
    92    40    90    1
    93    41    91    1
    94    42    92    1
    95    43    93    1
    96    45    94    1
    97    46    95    1
    98    46    96    1
    99    46    97    1
@<TRIPOS>MOLECULE
23693553
 97 99 0 0 0
SMALL
GASTEIGER

@<TRIPOS>ATOM
      1 O           0.0101    2.6369   -3.8642 O.2     1  LIG1       -0.2526
      2 O           0.6493   -1.6464   -1.4560 O.2     1  LIG1       -0.2731
      3 O           1.5944    2.0038    0.1543 O.2     1  LIG1       -0.2689
      4 O           0.7411   -3.1771    2.1975 O.co2   1  LIG1       -0.5479
      5 OXT        -0.3672   -1.3285    1.4969 O.co2   1  LIG1       -0.5479
      6 O          -1.8533    3.0297    7.0114 O.3     1  LIG1       -0.4515
      7 O          -0.1725    3.4042    8.5601 O.2     1  LIG1       -0.2227
      8 N          -1.5017    3.3740   -2.2891 N.am    1  LIG1       -0.2801
      9 N          -0.1341    1.4952   -1.9050 N.am    1  LIG1       -0.2879
     10 N           1.6716   -0.2948    0.1120 N.am    1  LIG1       -0.2273
     11 N           0.5713    0.1325    3.0831 N.4     1  LIG1        0.2276
     12 N           0.3163    3.0620    6.3287 N.ar    1  LIG1       -0.2526
     13 C          -1.6532    4.6189   -3.0793 C.3     1  LIG1        0.0249
     14 C          -2.4165    3.0720   -1.1637 C.3     1  LIG1        0.0249
     15 C          -2.9077    5.4485   -2.7890 C.3     1  LIG1       -0.0344
     16 C          -3.7163    3.8981   -1.1003 C.3     1  LIG1       -0.0344
     17 C          -4.0746    4.5634   -2.4116 C.3     1  LIG1       -0.0497
     18 CA          0.9758    0.5842   -2.2399 C.3     1  LIG1        0.1019
     19 C           3.3081    0.4646   -3.5257 C.3     1  LIG1       -0.0356
     20 C           2.3322    1.2545   -2.5936 C.3     1  LIG1       -0.0210
     21 C          -0.5237    2.4899   -2.7663 C.2     1  LIG1        0.3033
     22 C          -0.4212    5.5269   -2.9325 C.3     1  LIG1       -0.0464
     23 C          -1.7210    3.1698    0.1962 C.3     1  LIG1       -0.0464
     24 C           1.1098   -0.5326   -1.1656 C.2     1  LIG1        0.2429
     25 C           3.9821   -0.6908   -2.7753 C.3     1  LIG1       -0.0600
     26 C           2.6175   -0.0971   -4.7783 C.3     1  LIG1       -0.0600
     27 C           4.4166    1.4380   -3.9824 C.3     1  LIG1       -0.0600
     28 CA          1.9234   -1.5488    0.8963 C.3     1  LIG1        0.0730
     29 C           2.8803   -2.5332    0.1964 C.3     1  LIG1       -0.0286
     30 C           1.5241    0.9349    0.7714 C.2     1  LIG1        0.2708
     31 CA          1.4926    1.0530    2.3406 C.3     1  LIG1        0.0579
     32 C           3.6730   -3.4182    1.1701 C.3     1  LIG1       -0.0513
     33 C           1.1001    2.5074    2.7283 C.3     1  LIG1        0.0261
     34 C           0.6044   -2.1655    1.4667 C.2     1  LIG1        0.0626
     35 C           1.0687    2.7547    4.2089 C.ar    1  LIG1       -0.0158
     36 C           4.7578   -4.2544    0.4838 C.3     1  LIG1       -0.0558
     37 C           2.1906    2.9220    5.0661 C.ar    1  LIG1        0.0038
     38 C          -0.0558    2.8627    4.9999 C.ar    1  LIG1        0.0202
     39 C           1.7118    3.0867    6.3703 C.ar    1  LIG1        0.0598
     40 C           5.9045   -3.4236   -0.0743 C.3     1  LIG1       -0.0653
     41 C           3.5849    2.9401    4.8350 C.ar    1  LIG1       -0.0523
     42 C           2.5984    3.2393    7.4532 C.ar    1  LIG1       -0.0371
     43 C           4.4614    3.0984    5.9086 C.ar    1  LIG1       -0.0611
     44 C          -0.5694    3.1950    7.4250 C.2     1  LIG1        0.4196
     45 C           3.9745    3.2401    7.1995 C.ar    1  LIG1       -0.0598
     46 C          -2.8223    3.1116    8.0617 C.3     1  LIG1        0.0835
     47 H          -0.8939    1.0568   -1.4099 H       1  LIG1        0.1510
     48 H1          0.0650    0.5302    3.8731 H       1  LIG1        0.2002
     49 H2          1.0223   -0.7289    3.4208 H       1  LIG1        0.2002
     50 H3         -0.1636   -0.2644    2.4294 H       1  LIG1        0.2002
     51 H          -1.7167    4.3111   -4.1318 H       1  LIG1        0.0498
     52 H          -2.7249    2.0281   -1.3055 H       1  LIG1        0.0498
     53 H          -3.1597    6.0535   -3.6684 H       1  LIG1        0.0283
     54 H          -2.7167    6.1609   -1.9746 H       1  LIG1        0.0283
     55 H          -3.6279    4.6807   -0.3332 H       1  LIG1        0.0283
     56 H          -4.5414    3.2562   -0.7681 H       1  LIG1        0.0283
     57 H          -4.2783    3.8208   -3.1905 H       1  LIG1        0.0266
     58 H          -4.9784    5.1698   -2.2855 H       1  LIG1        0.0266
     59 HA          0.6082    0.0806   -3.1414 H       1  LIG1        0.0595
     60 H           2.8879    1.5042   -1.6849 H       1  LIG1        0.0293
     61 H           2.1459    2.2218   -3.0708 H       1  LIG1        0.0293
     62 H          -0.2699    5.8148   -1.8857 H       1  LIG1        0.0248
     63 H          -0.5380    6.4400   -3.5258 H       1  LIG1        0.0248
     64 H           0.4960    5.0347   -3.2692 H       1  LIG1        0.0248
     65 H          -1.2420    4.1456    0.3275 H       1  LIG1        0.0248
     66 H          -0.9558    2.4039    0.3112 H       1  LIG1        0.0248
     67 H          -2.4348    3.0215    1.0144 H       1  LIG1        0.0248
     68 H           4.4242   -0.3442   -1.8345 H       1  LIG1        0.0235
     69 H           4.7877   -1.1375   -3.3691 H       1  LIG1        0.0235
     70 H           3.2703   -1.4906   -2.5564 H       1  LIG1        0.0235
     71 H           2.0600    0.6817   -5.3083 H       1  LIG1        0.0235
     72 H           1.9247   -0.9091   -4.5327 H       1  LIG1        0.0235
     73 H           3.3528   -0.5159   -5.4763 H       1  LIG1        0.0235
     74 H           4.0011    2.2563   -4.5810 H       1  LIG1        0.0235
     75 H           5.1668    0.9278   -4.5971 H       1  LIG1        0.0235
     76 H           4.9348    1.8787   -3.1233 H       1  LIG1        0.0235
     77 HA          2.4747   -1.2175    1.7842 H       1  LIG1        0.0567
     78 H           3.5997   -1.9464   -0.3765 H       1  LIG1        0.0287
     79 H           2.3407   -3.1760   -0.5073 H       1  LIG1        0.0287
     80 HA          2.5009    0.8400    2.7147 H       1  LIG1        0.0952
     81 H           2.9915   -4.1094    1.6762 H       1  LIG1        0.0266
     82 H           4.1360   -2.8002    1.9489 H       1  LIG1        0.0266
     83 H           0.1109    2.7383    2.3175 H       1  LIG1        0.0374
     84 H           1.7953    3.2248    2.2728 H       1  LIG1        0.0374
     85 H           4.3174   -4.8583   -0.3178 H       1  LIG1        0.0263
     86 H           5.1687   -4.9550    1.2208 H       1  LIG1        0.0263
     87 H          -1.1048    2.8284    4.7373 H       1  LIG1        0.0818
     88 H           5.5858   -2.8200   -0.9287 H       1  LIG1        0.0230
     89 H           6.7108   -4.0794   -0.4181 H       1  LIG1        0.0230
     90 H           6.3151   -2.7545    0.6887 H       1  LIG1        0.0230
     91 H           3.9850    2.8456    3.8298 H       1  LIG1        0.0624
     92 H           2.2415    3.3617    8.4718 H       1  LIG1        0.0638
     93 H           5.5352    3.1165    5.7301 H       1  LIG1        0.0618
     94 H           4.6680    3.3619    8.0285 H       1  LIG1        0.0618
     95 H          -3.7388    2.6286    7.7119 H       1  LIG1        0.0661
     96 H          -3.0394    4.1616    8.2768 H       1  LIG1        0.0661
     97 H          -2.4893    2.5932    8.9665 H       1  LIG1        0.0661
@<TRIPOS>BOND
     1     1    21    2
     2     2    24    2
     3     3    30    2
     4     4    34   ar
     5     5    34   ar
     6     6    44    1
     7     6    46    1
     8     7    44    2
     9     8    13    1
    10     8    14    1
    11     9    21   am
    12    10    24   am
    13    10    30   am
    14    12    39   ar
    15    12    38   ar
    16    12    44   am
    17    13    15    1
    18    13    22    1
    19    14    16    1
    20    14    23    1
    21    15    17    1
    22    16    17    1
    23    18     9    1
    24    18    24    1
    25    18    20    1
    26    19    20    1
    27    19    27    1
    28    19    26    1
    29    19    25    1
    30    21     8   am
    31    28    34    1
    32    28    29    1
    33    28    10    1
    34    29    32    1
    35    31    33    1
    36    31    11    1
    37    31    30    1
    38    32    36    1
    39    33    35    1
    40    35    38   ar
    41    35    37   ar
    42    36    40    1
    43    37    39   ar
    44    37    41   ar
    45    39    42   ar
    46    41    43   ar
    47    42    45   ar
    48    43    45   ar
    49     9    47    1
    50    11    48    1
    51    11    49    1
    52    11    50    1
    53    13    51    1
    54    14    52    1
    55    15    53    1
    56    15    54    1
    57    16    55    1
    58    16    56    1
    59    17    57    1
    60    17    58    1
    61    18    59    1
    62    20    60    1
    63    20    61    1
    64    22    62    1
    65    22    63    1
    66    22    64    1
    67    23    65    1
    68    23    66    1
    69    23    67    1
    70    25    68    1
    71    25    69    1
    72    25    70    1
    73    26    71    1
    74    26    72    1
    75    26    73    1
    76    27    74    1
    77    27    75    1
    78    27    76    1
    79    28    77    1
    80    29    78    1
    81    29    79    1
    82    31    80    1
    83    32    81    1
    84    32    82    1
    85    33    83    1
    86    33    84    1
    87    36    85    1
    88    36    86    1
    89    38    87    1
    90    40    88    1
    91    40    89    1
    92    40    90    1
    93    41    91    1
    94    42    92    1
    95    43    93    1
    96    45    94    1
    97    46    95    1
    98    46    96    1
    99    46    97    1
@<TRIPOS>MOLECULE
23693553
 97 99 0 0 0
SMALL
GASTEIGER

@<TRIPOS>ATOM
      1 O          -1.7298    1.4092   -1.2744 O.2     1  LIG1       -0.2526
      2 O           0.5278   -1.6131   -1.3694 O.2     1  LIG1       -0.2731
      3 O           1.8694    1.9018    0.4233 O.2     1  LIG1       -0.2689
      4 O           0.6228   -2.9300    2.7171 O.co2   1  LIG1       -0.5479
      5 OXT        -0.3629   -1.0332    1.9178 O.co2   1  LIG1       -0.5479
      6 O           5.2173    4.6354    0.3882 O.3     1  LIG1       -0.4515
      7 O           7.3701    3.7982    0.2822 O.2     1  LIG1       -0.2227
      8 N          -1.1333    3.5577   -0.6591 N.am    1  LIG1       -0.2801
      9 N           0.4313    2.0244   -1.5588 N.am    1  LIG1       -0.2879
     10 N           1.6145   -0.3945    0.2570 N.am    1  LIG1       -0.2273
     11 N           0.9728    2.1437    2.8915 N.4     1  LIG1        0.2276
     12 N           5.7093    2.6692    1.4262 N.ar    1  LIG1       -0.2526
     13 C          -0.3386    4.7462   -1.0871 C.3     1  LIG1        0.0249
     14 C          -2.5561    3.7092   -0.2442 C.3     1  LIG1        0.0249
     15 C          -1.0436    6.1139   -0.9739 C.3     1  LIG1       -0.0344
     16 C          -3.0615    5.1402   -0.0548 C.3     1  LIG1       -0.0344
     17 C          -2.5413    6.0406   -1.1515 C.3     1  LIG1       -0.0497
     18 CA          0.7773    0.6717   -1.9960 C.3     1  LIG1        0.1019
     19 C           3.3459    1.0536   -2.8930 C.3     1  LIG1       -0.0356
     20 C           1.8632    0.6303   -3.1032 C.3     1  LIG1       -0.0210
     21 C          -0.8636    2.2749   -1.1799 C.2     1  LIG1        0.3033
     22 C           0.9804    4.8857   -0.3091 C.3     1  LIG1       -0.0464
     23 C          -2.8358    2.9288    1.0522 C.3     1  LIG1       -0.0464
     24 C           0.9270   -0.5065   -0.9711 C.2     1  LIG1        0.2429
     25 C           4.0755    0.2006   -1.8476 C.3     1  LIG1       -0.0600
     26 C           4.0691    0.8303   -4.2455 C.3     1  LIG1       -0.0600
     27 C           3.4908    2.5375   -2.5356 C.3     1  LIG1       -0.0600
     28 CA          1.7554   -1.6698    1.0333 C.3     1  LIG1        0.0730
     29 C           2.2821   -2.8742    0.2253 C.3     1  LIG1       -0.0286
     30 C           1.7097    0.7961    0.9651 C.2     1  LIG1        0.2708
     31 CA          1.6847    0.8529    2.5246 C.3     1  LIG1        0.0579
     32 C           3.3354   -3.6915    0.9861 C.3     1  LIG1       -0.0513
     33 C           3.0411    0.7776    3.2404 C.3     1  LIG1        0.0261
     34 C           0.4946   -1.9753    1.9085 C.2     1  LIG1        0.0626
     35 C           4.2565    1.3471    2.5750 C.ar    1  LIG1       -0.0158
     36 C           3.8785   -4.8700    0.1721 C.3     1  LIG1       -0.0558
     37 C           5.5570    0.7481    2.6044 C.ar    1  LIG1        0.0038
     38 C           4.3995    2.5354    1.8911 C.ar    1  LIG1        0.0202
     39 C           6.4346    1.5744    1.8955 C.ar    1  LIG1        0.0598
     40 C           4.6923   -4.4461   -1.0428 C.3     1  LIG1       -0.0653
     41 C           6.0615   -0.4332    3.1948 C.ar    1  LIG1       -0.0523
     42 C           7.7989    1.2431    1.7602 C.ar    1  LIG1       -0.0371
     43 C           7.4151   -0.7565    3.0710 C.ar    1  LIG1       -0.0611
     44 C           6.2032    3.7337    0.6448 C.2     1  LIG1        0.4196
     45 C           8.2709    0.0733    2.3606 C.ar    1  LIG1       -0.0598
     46 C           5.6600    5.7519   -0.3842 C.3     1  LIG1        0.0835
     47 H           1.1119    2.4161   -0.9274 H       1  LIG1        0.1510
     48 H1          0.9973    2.3551    3.8905 H       1  LIG1        0.2002
     49 H2         -0.0121    2.0176    2.6052 H       1  LIG1        0.2002
     50 H3          1.3553    2.9082    2.3213 H       1  LIG1        0.2002
     51 H          -0.1017    4.5924   -2.1479 H       1  LIG1        0.0498
     52 H          -3.1697    3.2744   -1.0455 H       1  LIG1        0.0498
     53 H          -0.6135    6.8061   -1.7092 H       1  LIG1        0.0283
     54 H          -0.8404    6.5603    0.0095 H       1  LIG1        0.0283
     55 H          -2.7529    5.5322    0.9238 H       1  LIG1        0.0283
     56 H          -4.1585    5.1462   -0.0581 H       1  LIG1        0.0283
     57 H          -2.8054    5.6575   -2.1435 H       1  LIG1        0.0266
     58 H          -2.9779    7.0403   -1.0534 H       1  LIG1        0.0266
     59 HA         -0.1214    0.3538   -2.5506 H       1  LIG1        0.0595
     60 H           1.4728    1.2334   -3.9371 H       1  LIG1        0.0293
     61 H           1.8788   -0.4028   -3.4824 H       1  LIG1        0.0293
     62 H           0.8307    4.6969    0.7589 H       1  LIG1        0.0248
     63 H           1.4064    5.8900   -0.4212 H       1  LIG1        0.0248
     64 H           1.7500    4.2101   -0.6740 H       1  LIG1        0.0248
     65 H          -2.2197    3.3084    1.8749 H       1  LIG1        0.0248
     66 H          -2.6194    1.8615    0.9533 H       1  LIG1        0.0248
     67 H          -3.8884    3.0214    1.3408 H       1  LIG1        0.0248
     68 H           3.7724    0.4512   -0.8317 H       1  LIG1        0.0235
     69 H           5.1589    0.3655   -1.8901 H       1  LIG1        0.0235
     70 H           3.9011   -0.8673   -2.0130 H       1  LIG1        0.0235
     71 H           3.6140    1.4288   -5.0428 H       1  LIG1        0.0235
     72 H           4.0251   -0.2222   -4.5487 H       1  LIG1        0.0235
     73 H           5.1271    1.1108   -4.1850 H       1  LIG1        0.0235
     74 H           2.8886    3.1693   -3.1973 H       1  LIG1        0.0235
     75 H           4.5333    2.8654   -2.6236 H       1  LIG1        0.0235
     76 H           3.1943    2.7348   -1.5061 H       1  LIG1        0.0235
     77 HA          2.5411   -1.4527    1.7637 H       1  LIG1        0.0567
     78 H           2.7446   -2.5187   -0.7005 H       1  LIG1        0.0287
     79 H           1.4536   -3.5382   -0.0493 H       1  LIG1        0.0287
     80 HA          1.0565    0.1200    3.0061 H       1  LIG1        0.0952
     81 H           2.8966   -4.0837    1.9101 H       1  LIG1        0.0266
     82 H           4.1690   -3.0417    1.2798 H       1  LIG1        0.0266
     83 H           3.2344   -0.2825    3.4434 H       1  LIG1        0.0374
     84 H           2.9595    1.2382    4.2347 H       1  LIG1        0.0374
     85 H           3.0533   -5.5161   -0.1488 H       1  LIG1        0.0263
     86 H           4.5205   -5.4741    0.8241 H       1  LIG1        0.0263
     87 H           3.6847    3.3095    1.6525 H       1  LIG1        0.0818
     88 H           4.0679   -3.9574   -1.7965 H       1  LIG1        0.0230
     89 H           5.1490   -5.3226   -1.5136 H       1  LIG1        0.0230
     90 H           5.4945   -3.7574   -0.7589 H       1  LIG1        0.0230
     91 H           5.4122   -1.0991    3.7578 H       1  LIG1        0.0624
     92 H           8.4889    1.8767    1.2098 H       1  LIG1        0.0638
     93 H           7.7982   -1.6626    3.5344 H       1  LIG1        0.0618
     94 H           9.3238   -0.1882    2.2696 H       1  LIG1        0.0618
     95 H           4.7992    6.4013   -0.5660 H       1  LIG1        0.0661
     96 H           6.0551    5.4215   -1.3504 H       1  LIG1        0.0661
     97 H           6.4131    6.3216    0.1686 H       1  LIG1        0.0661
@<TRIPOS>BOND
     1     1    21    2
     2     2    24    2
     3     3    30    2
     4     4    34   ar
     5     5    34   ar
     6     6    44    1
     7     6    46    1
     8     7    44    2
     9     8    13    1
    10     8    14    1
    11     9    21   am
    12    10    24   am
    13    10    30   am
    14    12    39   ar
    15    12    38   ar
    16    12    44   am
    17    13    15    1
    18    13    22    1
    19    14    16    1
    20    14    23    1
    21    15    17    1
    22    16    17    1
    23    18     9    1
    24    18    24    1
    25    18    20    1
    26    19    20    1
    27    19    27    1
    28    19    26    1
    29    19    25    1
    30    21     8   am
    31    28    34    1
    32    28    29    1
    33    28    10    1
    34    29    32    1
    35    31    33    1
    36    31    11    1
    37    31    30    1
    38    32    36    1
    39    33    35    1
    40    35    38   ar
    41    35    37   ar
    42    36    40    1
    43    37    39   ar
    44    37    41   ar
    45    39    42   ar
    46    41    43   ar
    47    42    45   ar
    48    43    45   ar
    49     9    47    1
    50    11    48    1
    51    11    49    1
    52    11    50    1
    53    13    51    1
    54    14    52    1
    55    15    53    1
    56    15    54    1
    57    16    55    1
    58    16    56    1
    59    17    57    1
    60    17    58    1
    61    18    59    1
    62    20    60    1
    63    20    61    1
    64    22    62    1
    65    22    63    1
    66    22    64    1
    67    23    65    1
    68    23    66    1
    69    23    67    1
    70    25    68    1
    71    25    69    1
    72    25    70    1
    73    26    71    1
    74    26    72    1
    75    26    73    1
    76    27    74    1
    77    27    75    1
    78    27    76    1
    79    28    77    1
    80    29    78    1
    81    29    79    1
    82    31    80    1
    83    32    81    1
    84    32    82    1
    85    33    83    1
    86    33    84    1
    87    36    85    1
    88    36    86    1
    89    38    87    1
    90    40    88    1
    91    40    89    1
    92    40    90    1
    93    41    91    1
    94    42    92    1
    95    43    93    1
    96    45    94    1
    97    46    95    1
    98    46    96    1
    99    46    97    1
@<TRIPOS>MOLECULE
23693553
 97 99 0 0 0
SMALL
GASTEIGER

@<TRIPOS>ATOM
      1 O           1.2699   -0.3813   -4.8423 O.2     1  LIG1       -0.2526
      2 O           0.7312   -1.9079   -1.7418 O.2     1  LIG1       -0.2731
      3 O           2.3455    1.5710   -0.3691 O.2     1  LIG1       -0.2689
      4 O           0.5641   -1.6461    3.2406 O.co2   1  LIG1       -0.5479
      5 OXT        -0.6353   -0.5409    1.6498 O.co2   1  LIG1       -0.5479
      6 O           6.1469    5.0031    2.0494 O.3     1  LIG1       -0.4515
      7 O           7.7480    4.0216    0.6945 O.2     1  LIG1       -0.2227
      8 N           3.3561    0.5504   -4.6802 N.am    1  LIG1       -0.2801
      9 N           1.7748    0.7704   -2.9458 N.am    1  LIG1       -0.2879
     10 N           1.4669   -0.5466   -0.0107 N.am    1  LIG1       -0.2273
     11 N           1.5557    2.6812    1.8991 N.4     1  LIG1        0.2276
     12 N           5.9933    2.7905    1.5546 N.ar    1  LIG1       -0.2526
     13 C           4.4479    1.1661   -3.8950 C.3     1  LIG1        0.0249
     14 C           3.5794    0.1411   -6.0878 C.3     1  LIG1        0.0249
     15 C           5.8728    0.8895   -4.4108 C.3     1  LIG1       -0.0344
     16 C           5.0432   -0.0133   -6.5165 C.3     1  LIG1       -0.0344
     17 C           5.9431   -0.3101   -5.3355 C.3     1  LIG1       -0.0497
     18 CA          0.5515    0.4539   -2.1743 C.3     1  LIG1        0.1019
     19 C          -2.1085    0.3584   -2.3650 C.3     1  LIG1       -0.0356
     20 C          -0.7128    0.2792   -3.0492 C.3     1  LIG1       -0.0210
     21 C           2.0828    0.2555   -4.1774 C.2     1  LIG1        0.3033
     22 C           4.2527    2.6780   -3.7349 C.3     1  LIG1       -0.0464
     23 C           2.8537    1.0760   -7.0656 C.3     1  LIG1       -0.0464
     24 C           0.8821   -0.7745   -1.2803 C.2     1  LIG1        0.2429
     25 C          -2.2579    1.6145   -1.4939 C.3     1  LIG1       -0.0600
     26 C          -3.1726    0.4146   -3.4840 C.3     1  LIG1       -0.0600
     27 C          -2.3885   -0.8897   -1.5159 C.3     1  LIG1       -0.0600
     28 CA          1.3790   -1.6302    1.0176 C.3     1  LIG1        0.0730
     29 C           1.4725   -3.1065    0.6027 C.3     1  LIG1       -0.0286
     30 C           1.8768    0.7216    0.4105 C.2     1  LIG1        0.2708
     31 CA          1.7968    1.1747    1.9120 C.3     1  LIG1        0.0579
     32 C           0.1322   -3.8367    0.4576 C.3     1  LIG1       -0.0513
     33 C           3.0423    0.8757    2.7632 C.3     1  LIG1        0.0261
     34 C           0.2546   -1.3515    2.0527 C.2     1  LIG1        0.0626
     35 C           4.3198    1.3936    2.1788 C.ar    1  LIG1       -0.0158
     36 C           0.2802   -5.2407   -0.1357 C.3     1  LIG1       -0.0558
     37 C           5.2733    0.6499    1.4224 C.ar    1  LIG1        0.0038
     38 C           4.8119    2.6760    2.2811 C.ar    1  LIG1        0.0202
     39 C           6.2867    1.5307    1.0263 C.ar    1  LIG1        0.0598
     40 C           1.1566   -6.1639    0.6985 C.3     1  LIG1       -0.0653
     41 C           5.3587   -0.7058    1.0378 C.ar    1  LIG1       -0.0523
     42 C           7.3669    1.0883    0.2386 C.ar    1  LIG1       -0.0371
     43 C           6.4335   -1.1466    0.2632 C.ar    1  LIG1       -0.0611
     44 C           6.7406    3.9781    1.3816 C.2     1  LIG1        0.4196
     45 C           7.4219   -0.2576   -0.1343 C.ar    1  LIG1       -0.0598
     46 C           6.8302    6.2521    1.9264 C.3     1  LIG1        0.0835
     47 H           2.5341    1.0902   -2.3666 H       1  LIG1        0.1510
     48 H1          1.6734    3.1028    2.8231 H       1  LIG1        0.2002
     49 H2          0.5953    2.8469    1.5715 H       1  LIG1        0.2002
     50 H3          2.1982    3.0960    1.2089 H       1  LIG1        0.2002
     51 H           4.3993    0.7125   -2.8972 H       1  LIG1        0.0498
     52 H           3.1277   -0.8546   -6.1973 H       1  LIG1        0.0498
     53 H           6.5492    0.7458   -3.5595 H       1  LIG1        0.0283
     54 H           6.2584    1.7659   -4.9498 H       1  LIG1        0.0283
     55 H           5.3955    0.8993   -7.0158 H       1  LIG1        0.0283
     56 H           5.1227   -0.8129   -7.2635 H       1  LIG1        0.0283
     57 H           5.6309   -1.2257   -4.8207 H       1  LIG1        0.0266
     58 H           6.9726   -0.4580   -5.6795 H       1  LIG1        0.0266
     59 HA          0.3771    1.3301   -1.5484 H       1  LIG1        0.0595
     60 H          -0.6685   -0.6795   -3.5804 H       1  LIG1        0.0293
     61 H          -0.6839    1.0626   -3.8205 H       1  LIG1        0.0293
     62 H           4.2764    3.1809   -4.7077 H       1  LIG1        0.0248
     63 H           5.0463    3.1033   -3.1105 H       1  LIG1        0.0248
     64 H           3.2970    2.9266   -3.2658 H       1  LIG1        0.0248
     65 H           3.2420    2.0977   -6.9939 H       1  LIG1        0.0248
     66 H           1.7784    1.1210   -6.8658 H       1  LIG1        0.0248
     67 H           2.9823    0.7319   -8.0977 H       1  LIG1        0.0248
     68 H          -1.6155    1.5744   -0.6083 H       1  LIG1        0.0235
     69 H          -3.2884    1.7243   -1.1362 H       1  LIG1        0.0235
     70 H          -2.0050    2.5189   -2.0582 H       1  LIG1        0.0235
     71 H          -3.1028   -0.4607   -4.1402 H       1  LIG1        0.0235
     72 H          -3.0473    1.3085   -4.1058 H       1  LIG1        0.0235
     73 H          -4.1870    0.4396   -3.0701 H       1  LIG1        0.0235
     74 H          -2.2505   -1.8068   -2.0994 H       1  LIG1        0.0235
     75 H          -3.4182   -0.8893   -1.1403 H       1  LIG1        0.0235
     76 H          -1.7312   -0.9417   -0.6472 H       1  LIG1        0.0235
     77 HA          2.3094   -1.4874    1.5760 H       1  LIG1        0.0567
     78 H           2.0321   -3.6239    1.3947 H       1  LIG1        0.0287
     79 H           2.0887   -3.2184   -0.2970 H       1  LIG1        0.0287
     80 HA          0.9198    0.8347    2.4391 H       1  LIG1        0.0952
     81 H          -0.5560   -3.2645   -0.1720 H       1  LIG1        0.0266
     82 H          -0.3469   -3.9215    1.4407 H       1  LIG1        0.0266
     83 H           3.1381   -0.1973    2.9497 H       1  LIG1        0.0374
     84 H           2.9104    1.3232    3.7583 H       1  LIG1        0.0374
     85 H           0.6868   -5.1742   -1.1516 H       1  LIG1        0.0263
     86 H          -0.7175   -5.6870   -0.2212 H       1  LIG1        0.0263
     87 H           4.4275    3.5386    2.8093 H       1  LIG1        0.0818
     88 H           2.2041   -5.8479    0.6751 H       1  LIG1        0.0230
     89 H           1.1118   -7.1841    0.3047 H       1  LIG1        0.0230
     90 H           0.8253   -6.1867    1.7415 H       1  LIG1        0.0230
     91 H           4.6088   -1.4275    1.3500 H       1  LIG1        0.0624
     92 H           8.1603    1.7628   -0.0736 H       1  LIG1        0.0638
     93 H           6.4976   -2.1943   -0.0228 H       1  LIG1        0.0618
     94 H           8.2563   -0.6140   -0.7349 H       1  LIG1        0.0618
     95 H           6.5167    6.8908    2.7572 H       1  LIG1        0.0661
     96 H           6.5414    6.7332    0.9875 H       1  LIG1        0.0661
     97 H           7.9170    6.1333    1.9803 H       1  LIG1        0.0661
@<TRIPOS>BOND
     1     1    21    2
     2     2    24    2
     3     3    30    2
     4     4    34   ar
     5     5    34   ar
     6     6    44    1
     7     6    46    1
     8     7    44    2
     9     8    13    1
    10     8    14    1
    11     9    21   am
    12    10    24   am
    13    10    30   am
    14    12    39   ar
    15    12    38   ar
    16    12    44   am
    17    13    15    1
    18    13    22    1
    19    14    16    1
    20    14    23    1
    21    15    17    1
    22    16    17    1
    23    18     9    1
    24    18    24    1
    25    18    20    1
    26    19    20    1
    27    19    27    1
    28    19    26    1
    29    19    25    1
    30    21     8   am
    31    28    34    1
    32    28    29    1
    33    28    10    1
    34    29    32    1
    35    31    33    1
    36    31    11    1
    37    31    30    1
    38    32    36    1
    39    33    35    1
    40    35    38   ar
    41    35    37   ar
    42    36    40    1
    43    37    39   ar
    44    37    41   ar
    45    39    42   ar
    46    41    43   ar
    47    42    45   ar
    48    43    45   ar
    49     9    47    1
    50    11    48    1
    51    11    49    1
    52    11    50    1
    53    13    51    1
    54    14    52    1
    55    15    53    1
    56    15    54    1
    57    16    55    1
    58    16    56    1
    59    17    57    1
    60    17    58    1
    61    18    59    1
    62    20    60    1
    63    20    61    1
    64    22    62    1
    65    22    63    1
    66    22    64    1
    67    23    65    1
    68    23    66    1
    69    23    67    1
    70    25    68    1
    71    25    69    1
    72    25    70    1
    73    26    71    1
    74    26    72    1
    75    26    73    1
    76    27    74    1
    77    27    75    1
    78    27    76    1
    79    28    77    1
    80    29    78    1
    81    29    79    1
    82    31    80    1
    83    32    81    1
    84    32    82    1
    85    33    83    1
    86    33    84    1
    87    36    85    1
    88    36    86    1
    89    38    87    1
    90    40    88    1
    91    40    89    1
    92    40    90    1
    93    41    91    1
    94    42    92    1
    95    43    93    1
    96    45    94    1
    97    46    95    1
    98    46    96    1
    99    46    97    1
@<TRIPOS>MOLECULE
23693553
 97 99 0 0 0
SMALL
GASTEIGER

@<TRIPOS>ATOM
      1 O           0.8548   -3.4457   -3.8173 O.2     1  LIG1       -0.2526
      2 O           0.0552    0.1518   -1.9194 O.2     1  LIG1       -0.2731
      3 O           0.8633    1.6072    1.4676 O.2     1  LIG1       -0.2689
      4 O           4.2552   -1.5586   -0.0761 O.co2   1  LIG1       -0.5479
      5 OXT         3.7505    0.6654    0.1360 O.co2   1  LIG1       -0.5479
      6 O          -0.6103    5.2936    3.3304 O.3     1  LIG1       -0.4515
      7 O          -2.9139    5.4183    3.1600 O.2     1  LIG1       -0.2227
      8 N           3.0019   -4.0508   -3.2563 N.am    1  LIG1       -0.2801
      9 N           1.6119   -2.8441   -1.7663 N.am    1  LIG1       -0.2879
     10 N           1.0942   -0.2186    0.0708 N.am    1  LIG1       -0.2273
     11 N           2.6781    2.8462   -0.2682 N.4     1  LIG1        0.2276
     12 N          -1.6367    4.5371    1.4454 N.ar    1  LIG1       -0.2526
     13 C           3.1108   -4.7517   -4.5557 C.3     1  LIG1        0.0249
     14 C           4.1567   -4.0296   -2.3296 C.3     1  LIG1        0.0249
     15 C           4.5396   -5.0673   -5.0186 C.3     1  LIG1       -0.0344
     16 C           5.5455   -4.2253   -2.9667 C.3     1  LIG1       -0.0344
     17 C           5.5351   -4.0656   -4.4734 C.3     1  LIG1       -0.0497
     18 CA          0.3561   -2.1623   -1.4142 C.3     1  LIG1        0.1019
     19 C          -1.9676   -2.4605   -0.1521 C.3     1  LIG1       -0.0356
     20 C          -0.4797   -2.9155   -0.3554 C.3     1  LIG1       -0.0210
     21 C           1.7722   -3.4388   -2.9963 C.2     1  LIG1        0.3033
     22 C           2.2795   -6.0414   -4.5845 C.3     1  LIG1       -0.0464
     23 C           3.9663   -5.0233   -1.1801 C.3     1  LIG1       -0.0464
     24 C           0.5287   -0.6617   -1.1138 C.2     1  LIG1        0.2429
     25 C          -2.7342   -2.3854   -1.4832 C.3     1  LIG1       -0.0600
     26 C          -2.6606   -3.5057    0.7483 C.3     1  LIG1       -0.0600
     27 C          -2.0922   -1.1013    0.5592 C.3     1  LIG1       -0.0600
     28 CA          2.1311   -0.9737    0.8252 C.3     1  LIG1        0.0730
     29 C           2.2481   -0.7449    2.3458 C.3     1  LIG1       -0.0286
     30 C           1.0367    1.1450    0.3337 C.2     1  LIG1        0.2708
     31 CA          1.4791    2.1026   -0.8017 C.3     1  LIG1        0.0579
     32 C           0.9562   -1.0097    3.1216 C.3     1  LIG1       -0.0513
     33 C           0.4135    3.0792   -1.3228 C.3     1  LIG1        0.0261
     34 C           3.5454   -0.5861    0.2810 C.2     1  LIG1        0.0626
     35 C          -0.6170    3.6153   -0.3691 C.ar    1  LIG1       -0.0158
     36 C           1.1580   -0.7771    4.6208 C.3     1  LIG1       -0.0558
     37 C          -2.0280    3.6897   -0.6133 C.ar    1  LIG1        0.0038
     38 C          -0.4180    4.1789    0.8730 C.ar    1  LIG1        0.0202
     39 C          -2.6382    4.2552    0.5136 C.ar    1  LIG1        0.0598
     40 C          -0.1695   -0.7108    5.3591 C.3     1  LIG1       -0.0653
     41 C          -2.8431    3.3303   -1.7117 C.ar    1  LIG1       -0.0523
     42 C          -4.0320    4.4608    0.5666 C.ar    1  LIG1       -0.0371
     43 C          -4.2233    3.5516   -1.6672 C.ar    1  LIG1       -0.0611
     44 C          -1.8142    5.1146    2.7227 C.2     1  LIG1        0.4196
     45 C          -4.8085    4.1091   -0.5394 C.ar    1  LIG1       -0.0598
     46 C          -0.7068    5.9318    4.6030 C.3     1  LIG1        0.0835
     47 H           2.4409   -2.6942   -1.2060 H       1  LIG1        0.1510
     48 H1          3.1274    3.4937   -0.9116 H       1  LIG1        0.2002
     49 H2          3.3774    2.0693   -0.0684 H       1  LIG1        0.2002
     50 H3          2.4818    3.2466    0.6530 H       1  LIG1        0.2002
     51 H           2.6845   -4.0699   -5.3048 H       1  LIG1        0.0498
     52 H           4.1837   -3.0218   -1.9183 H       1  LIG1        0.0498
     53 H           4.5765   -5.0801   -6.1146 H       1  LIG1        0.0283
     54 H           4.8336   -6.0748   -4.6938 H       1  LIG1        0.0283
     55 H           5.9409   -5.2203   -2.7216 H       1  LIG1        0.0283
     56 H           6.2537   -3.5135   -2.5238 H       1  LIG1        0.0283
     57 H           5.2649   -3.0433   -4.7607 H       1  LIG1        0.0266
     58 H           6.5336   -4.2692   -4.8759 H       1  LIG1        0.0266
     59 HA         -0.2504   -2.1728   -2.3257 H       1  LIG1        0.0595
     60 H           0.0250   -2.8991    0.6164 H       1  LIG1        0.0293
     61 H          -0.4938   -3.9743   -0.6522 H       1  LIG1        0.0293
     62 H           2.6183   -6.7447   -3.8164 H       1  LIG1        0.0248
     63 H           2.3631   -6.5325   -5.5605 H       1  LIG1        0.0248
     64 H           1.2175   -5.8494   -4.4065 H       1  LIG1        0.0248
     65 H           3.9378   -6.0523   -1.5557 H       1  LIG1        0.0248
     66 H           3.0327   -4.8505   -0.6371 H       1  LIG1        0.0248
     67 H           4.7888   -4.9460   -0.4608 H       1  LIG1        0.0248
     68 H          -2.3681   -1.5712   -2.1176 H       1  LIG1        0.0235
     69 H          -3.8007   -2.1964   -1.3132 H       1  LIG1        0.0235
     70 H          -2.6462   -3.3215   -2.0444 H       1  LIG1        0.0235
     71 H          -2.1545   -3.5887    1.7167 H       1  LIG1        0.0235
     72 H          -2.6612   -4.4957    0.2800 H       1  LIG1        0.0235
     73 H          -3.7045   -3.2325    0.9430 H       1  LIG1        0.0235
     74 H          -1.5029   -1.0834    1.4786 H       1  LIG1        0.0235
     75 H          -3.1327   -0.8963    0.8386 H       1  LIG1        0.0235
     76 H          -1.7810   -0.2662   -0.0716 H       1  LIG1        0.0235
     77 HA          1.9813   -2.0426    0.6726 H       1  LIG1        0.0567
     78 H           2.6092    0.2670    2.5670 H       1  LIG1        0.0287
     79 H           3.0258   -1.4174    2.7357 H       1  LIG1        0.0287
     80 HA          1.9048    1.5545   -1.6480 H       1  LIG1        0.0952
     81 H           0.6173   -2.0381    2.9510 H       1  LIG1        0.0266
     82 H           0.1637   -0.3473    2.7659 H       1  LIG1        0.0266
     83 H          -0.1199    2.5743   -2.1366 H       1  LIG1        0.0374
     84 H           0.9048    3.9364   -1.8015 H       1  LIG1        0.0374
     85 H           1.6985    0.1617    4.7895 H       1  LIG1        0.0263
     86 H           1.7713   -1.5834    5.0393 H       1  LIG1        0.0263
     87 H           0.4875    4.3263    1.4447 H       1  LIG1        0.0818
     88 H          -0.7678    0.1356    5.0048 H       1  LIG1        0.0230
     89 H          -0.0002   -0.5759    6.4320 H       1  LIG1        0.0230
     90 H          -0.7500   -1.6268    5.2145 H       1  LIG1        0.0230
     91 H          -2.4085    2.8885   -2.6044 H       1  LIG1        0.0624
     92 H          -4.5116    4.8947    1.4404 H       1  LIG1        0.0638
     93 H          -4.8407    3.2862   -2.5222 H       1  LIG1        0.0618
     94 H          -5.8830    4.2763   -0.5135 H       1  LIG1        0.0618
     95 H           0.2970    5.9825    5.0324 H       1  LIG1        0.0661
     96 H          -1.3455    5.3568    5.2806 H       1  LIG1        0.0661
     97 H          -1.0849    6.9518    4.4849 H       1  LIG1        0.0661
@<TRIPOS>BOND
     1     1    21    2
     2     2    24    2
     3     3    30    2
     4     4    34   ar
     5     5    34   ar
     6     6    44    1
     7     6    46    1
     8     7    44    2
     9     8    13    1
    10     8    14    1
    11     9    21   am
    12    10    24   am
    13    10    30   am
    14    12    39   ar
    15    12    38   ar
    16    12    44   am
    17    13    15    1
    18    13    22    1
    19    14    16    1
    20    14    23    1
    21    15    17    1
    22    16    17    1
    23    18     9    1
    24    18    24    1
    25    18    20    1
    26    19    20    1
    27    19    27    1
    28    19    26    1
    29    19    25    1
    30    21     8   am
    31    28    34    1
    32    28    29    1
    33    28    10    1
    34    29    32    1
    35    31    33    1
    36    31    11    1
    37    31    30    1
    38    32    36    1
    39    33    35    1
    40    35    38   ar
    41    35    37   ar
    42    36    40    1
    43    37    39   ar
    44    37    41   ar
    45    39    42   ar
    46    41    43   ar
    47    42    45   ar
    48    43    45   ar
    49     9    47    1
    50    11    48    1
    51    11    49    1
    52    11    50    1
    53    13    51    1
    54    14    52    1
    55    15    53    1
    56    15    54    1
    57    16    55    1
    58    16    56    1
    59    17    57    1
    60    17    58    1
    61    18    59    1
    62    20    60    1
    63    20    61    1
    64    22    62    1
    65    22    63    1
    66    22    64    1
    67    23    65    1
    68    23    66    1
    69    23    67    1
    70    25    68    1
    71    25    69    1
    72    25    70    1
    73    26    71    1
    74    26    72    1
    75    26    73    1
    76    27    74    1
    77    27    75    1
    78    27    76    1
    79    28    77    1
    80    29    78    1
    81    29    79    1
    82    31    80    1
    83    32    81    1
    84    32    82    1
    85    33    83    1
    86    33    84    1
    87    36    85    1
    88    36    86    1
    89    38    87    1
    90    40    88    1
    91    40    89    1
    92    40    90    1
    93    41    91    1
    94    42    92    1
    95    43    93    1
    96    45    94    1
    97    46    95    1
    98    46    96    1
    99    46    97    1
@<TRIPOS>MOLECULE
23693553
 97 99 0 0 0
SMALL
GASTEIGER

@<TRIPOS>ATOM
      1 O           2.7600    2.3980   -3.1081 O.2     1  LIG1       -0.2526
      2 O           0.6938   -1.4875   -1.7367 O.2     1  LIG1       -0.2731
      3 O           1.9347    2.0869    0.0725 O.2     1  LIG1       -0.2689
      4 O           0.0757   -2.6713    1.0125 O.co2   1  LIG1       -0.5479
      5 OXT         1.8555   -3.7647    0.0927 O.co2   1  LIG1       -0.5479
      6 O           3.0293    0.9025    8.8819 O.3     1  LIG1       -0.4515
      7 O           2.7291   -1.0962    7.7589 O.2     1  LIG1       -0.2227
      8 N           3.3462    0.8690   -4.7404 N.am    1  LIG1       -0.2801
      9 N           1.5341    0.5248   -3.2918 N.am    1  LIG1       -0.2879
     10 N           1.5375   -0.2109    0.0093 N.am    1  LIG1       -0.2273
     11 N           1.0777    2.5393    2.4499 N.4     1  LIG1        0.2276
     12 N           2.9528    0.8642    6.5929 N.ar    1  LIG1       -0.2526
     13 C           4.4273    1.7959   -5.1543 C.3     1  LIG1        0.0249
     14 C           3.3162   -0.5415   -5.2156 C.3     1  LIG1        0.0249
     15 C           5.4774    1.2190   -6.1055 C.3     1  LIG1       -0.0344
     16 C           4.5227   -1.0135   -6.0489 C.3     1  LIG1       -0.0344
     17 C           5.7840   -0.2247   -5.7777 C.3     1  LIG1       -0.0497
     18 CA          0.6391    0.8336   -2.1631 C.3     1  LIG1        0.1019
     19 C          -1.9564    1.2875   -1.7709 C.3     1  LIG1       -0.0356
     20 C          -0.7943    0.9060   -2.7295 C.3     1  LIG1       -0.0210
     21 C           2.5680    1.3211   -3.6694 C.2     1  LIG1        0.3033
     22 C           3.8677    3.0820   -5.7840 C.3     1  LIG1       -0.0464
     23 C           2.0461   -0.8591   -6.0236 C.3     1  LIG1       -0.0464
     24 C           0.9244   -0.3772   -1.2496 C.2     1  LIG1        0.2429
     25 C          -3.1819    1.6652   -2.6339 C.3     1  LIG1       -0.0600
     26 C          -2.3502    0.0981   -0.8821 C.3     1  LIG1       -0.0600
     27 C          -1.6103    2.4927   -0.8849 C.3     1  LIG1       -0.0600
     28 CA          2.0367   -1.4466    0.6860 C.3     1  LIG1        0.0730
     29 C           3.5687   -1.5690    0.6456 C.3     1  LIG1       -0.0286
     30 C           1.7052    1.0121    0.6389 C.2     1  LIG1        0.2708
     31 CA          1.5816    1.1217    2.1812 C.3     1  LIG1        0.0579
     32 C           4.2666   -1.7100   -0.7000 C.3     1  LIG1       -0.0513
     33 C           2.9402    0.9469    2.8817 C.3     1  LIG1        0.0261
     34 C           1.2381   -2.7664    0.5183 C.2     1  LIG1        0.0626
     35 C           2.9582    1.2288    4.3506 C.ar    1  LIG1       -0.0158
     36 C           5.7865   -1.5117   -0.5388 C.3     1  LIG1       -0.0558
     37 C           3.1870    2.4697    5.0072 C.ar    1  LIG1        0.0038
     38 C           2.8214    0.2812    5.3386 C.ar    1  LIG1        0.0202
     39 C           3.1197    2.2417    6.3912 C.ar    1  LIG1        0.0598
     40 C           6.4311   -2.4330    0.4923 C.3     1  LIG1       -0.0653
     41 C           3.4393    3.7771    4.5348 C.ar    1  LIG1       -0.0523
     42 C           3.2431    3.3132    7.2974 C.ar    1  LIG1       -0.0371
     43 C           3.5504    4.8353    5.4371 C.ar    1  LIG1       -0.0611
     44 C           2.9021    0.1127    7.7887 C.2     1  LIG1        0.4196
     45 C           3.4422    4.6041    6.8008 C.ar    1  LIG1       -0.0598
     46 C           2.8870    0.2006   10.1177 C.3     1  LIG1        0.0835
     47 H           1.5711   -0.4592   -3.5173 H       1  LIG1        0.1510
     48 H1          1.0837    2.7926    3.4441 H       1  LIG1        0.2002
     49 H2          0.1334    2.6628    2.0696 H       1  LIG1        0.2002
     50 H3          1.6776    3.1865    1.9115 H       1  LIG1        0.2002
     51 H           4.9551    2.0746   -4.2303 H       1  LIG1        0.0498
     52 H           3.3127   -1.1596   -4.3087 H       1  LIG1        0.0498
     53 H           6.3931    1.8201   -6.0484 H       1  LIG1        0.0283
     54 H           5.1287    1.2890   -7.1449 H       1  LIG1        0.0283
     55 H           4.2939   -0.9367   -7.1210 H       1  LIG1        0.0283
     56 H           4.7002   -2.0798   -5.8621 H       1  LIG1        0.0283
     57 H           6.1072   -0.3376   -4.7371 H       1  LIG1        0.0266
     58 H           6.5941   -0.5885   -6.4196 H       1  LIG1        0.0266
     59 HA          0.9007    1.8002   -1.7554 H       1  LIG1        0.0595
     60 H          -1.0438   -0.0393   -3.2320 H       1  LIG1        0.0293
     61 H          -0.7707    1.6548   -3.5370 H       1  LIG1        0.0293
     62 H           3.2715    2.8532   -6.6736 H       1  LIG1        0.0248
     63 H           4.6821    3.7534   -6.0779 H       1  LIG1        0.0248
     64 H           3.2251    3.6421   -5.0994 H       1  LIG1        0.0248
     65 H           2.0100   -0.2625   -6.9412 H       1  LIG1        0.0248
     66 H           1.1199   -0.6585   -5.4809 H       1  LIG1        0.0248
     67 H           2.0296   -1.9188   -6.3030 H       1  LIG1        0.0248
     68 H          -2.9705    2.5389   -3.2619 H       1  LIG1        0.0235
     69 H          -4.0484    1.9138   -2.0100 H       1  LIG1        0.0235
     70 H          -3.4727    0.8412   -3.2947 H       1  LIG1        0.0235
     71 H          -1.5706   -0.1423   -0.1545 H       1  LIG1        0.0235
     72 H          -2.5432   -0.7975   -1.4832 H       1  LIG1        0.0235
     73 H          -3.2641    0.3160   -0.3170 H       1  LIG1        0.0235
     74 H          -0.8240    2.2502   -0.1658 H       1  LIG1        0.0235
     75 H          -2.4822    2.8194   -0.3058 H       1  LIG1        0.0235
     76 H          -1.2729    3.3443   -1.4857 H       1  LIG1        0.0235
     77 HA          1.8369   -1.2800    1.7509 H       1  LIG1        0.0567
     78 H           3.8494   -2.4137    1.2872 H       1  LIG1        0.0287
     79 H           4.0040   -0.6772    1.1001 H       1  LIG1        0.0287
     80 HA          0.7992    0.4669    2.5726 H       1  LIG1        0.0952
     81 H           3.8961   -0.9546   -1.4020 H       1  LIG1        0.0266
     82 H           4.0648   -2.6929   -1.1359 H       1  LIG1        0.0266
     83 H           3.7142    1.5401    2.3783 H       1  LIG1        0.0374
     84 H           3.2583   -0.0925    2.8002 H       1  LIG1        0.0374
     85 H           5.9878   -0.4724   -0.2460 H       1  LIG1        0.0263
     86 H           6.2706   -1.6639   -1.5091 H       1  LIG1        0.0263
     87 H           2.6796   -0.7934    5.2712 H       1  LIG1        0.0818
     88 H           6.1011   -2.1943    1.5094 H       1  LIG1        0.0230
     89 H           7.5194   -2.3189    0.4765 H       1  LIG1        0.0230
     90 H           6.1916   -3.4814    0.2893 H       1  LIG1        0.0230
     91 H           3.5658    3.9763    3.4741 H       1  LIG1        0.0624
     92 H           3.1954    3.1684    8.3728 H       1  LIG1        0.0638
     93 H           3.7379    5.8434    5.0743 H       1  LIG1        0.0618
     94 H           3.5379    5.4345    7.4982 H       1  LIG1        0.0618
     95 H           3.2477    0.8515   10.9188 H       1  LIG1        0.0661
     96 H           3.4763   -0.7224   10.1334 H       1  LIG1        0.0661
     97 H           1.8286   -0.0148   10.2930 H       1  LIG1        0.0661
@<TRIPOS>BOND
     1     1    21    2
     2     2    24    2
     3     3    30    2
     4     4    34   ar
     5     5    34   ar
     6     6    44    1
     7     6    46    1
     8     7    44    2
     9     8    13    1
    10     8    14    1
    11     9    21   am
    12    10    24   am
    13    10    30   am
    14    12    39   ar
    15    12    38   ar
    16    12    44   am
    17    13    15    1
    18    13    22    1
    19    14    16    1
    20    14    23    1
    21    15    17    1
    22    16    17    1
    23    18     9    1
    24    18    24    1
    25    18    20    1
    26    19    20    1
    27    19    27    1
    28    19    26    1
    29    19    25    1
    30    21     8   am
    31    28    34    1
    32    28    29    1
    33    28    10    1
    34    29    32    1
    35    31    33    1
    36    31    11    1
    37    31    30    1
    38    32    36    1
    39    33    35    1
    40    35    38   ar
    41    35    37   ar
    42    36    40    1
    43    37    39   ar
    44    37    41   ar
    45    39    42   ar
    46    41    43   ar
    47    42    45   ar
    48    43    45   ar
    49     9    47    1
    50    11    48    1
    51    11    49    1
    52    11    50    1
    53    13    51    1
    54    14    52    1
    55    15    53    1
    56    15    54    1
    57    16    55    1
    58    16    56    1
    59    17    57    1
    60    17    58    1
    61    18    59    1
    62    20    60    1
    63    20    61    1
    64    22    62    1
    65    22    63    1
    66    22    64    1
    67    23    65    1
    68    23    66    1
    69    23    67    1
    70    25    68    1
    71    25    69    1
    72    25    70    1
    73    26    71    1
    74    26    72    1
    75    26    73    1
    76    27    74    1
    77    27    75    1
    78    27    76    1
    79    28    77    1
    80    29    78    1
    81    29    79    1
    82    31    80    1
    83    32    81    1
    84    32    82    1
    85    33    83    1
    86    33    84    1
    87    36    85    1
    88    36    86    1
    89    38    87    1
    90    40    88    1
    91    40    89    1
    92    40    90    1
    93    41    91    1
    94    42    92    1
    95    43    93    1
    96    45    94    1
    97    46    95    1
    98    46    96    1
    99    46    97    1
@<TRIPOS>MOLECULE
23693553
 97 99 0 0 0
SMALL
GASTEIGER

@<TRIPOS>ATOM
      1 O          -1.9798    1.2497   -0.9185 O.2     1  LIG1       -0.2526
      2 O           0.0344   -1.7348   -1.2082 O.2     1  LIG1       -0.2731
      3 O           2.1572    1.7157   -0.1393 O.2     1  LIG1       -0.2689
      4 O           0.8052   -2.6728    2.9487 O.co2   1  LIG1       -0.5479
      5 OXT        -0.1918   -0.7983    2.1213 O.co2   1  LIG1       -0.5479
      6 O           8.0080    2.2618    4.1431 O.3     1  LIG1       -0.4515
      7 O           8.9822    2.6135    2.0727 O.2     1  LIG1       -0.2227
      8 N          -1.0994    3.3139   -0.2623 N.am    1  LIG1       -0.2801
      9 N           0.1243    1.7891   -1.5469 N.am    1  LIG1       -0.2879
     10 N           1.5058   -0.4986    0.0716 N.am    1  LIG1       -0.2273
     11 N           1.9427    2.5217    2.2968 N.4     1  LIG1        0.2276
     12 N           6.7537    2.0470    2.2669 N.ar    1  LIG1       -0.2526
     13 C          -0.6286    4.5141   -1.0225 C.3     1  LIG1        0.0249
     14 C          -2.2946    3.4185    0.6184 C.3     1  LIG1        0.0249
     15 C          -1.1897    5.8690   -0.5483 C.3     1  LIG1       -0.0344
     16 C          -2.6587    4.8300    1.0813 C.3     1  LIG1       -0.0344
     17 C          -2.6258    5.7909   -0.0856 C.3     1  LIG1       -0.0497
     18 CA          0.4087    0.4569   -2.0940 C.3     1  LIG1        0.1019
     19 C           1.9203   -0.5465   -4.0778 C.3     1  LIG1       -0.0356
     20 C           1.6216    0.5827   -3.0480 C.3     1  LIG1       -0.0210
     21 C          -1.0622    2.0606   -0.9319 C.2     1  LIG1        0.3033
     22 C           0.9043    4.6726   -1.0186 C.3     1  LIG1       -0.0464
     23 C          -2.1129    2.5428    1.8702 C.3     1  LIG1       -0.0464
     24 C           0.6053   -0.6531   -1.0084 C.2     1  LIG1        0.2429
     25 C           0.6730   -0.9363   -4.8836 C.3     1  LIG1       -0.0600
     26 C           2.9862   -0.0093   -5.0607 C.3     1  LIG1       -0.0600
     27 C           2.5040   -1.8005   -3.4132 C.3     1  LIG1       -0.0600
     28 CA          1.6614   -1.7024    0.9498 C.3     1  LIG1        0.0730
     29 C           2.0256   -3.0126    0.2237 C.3     1  LIG1       -0.0286
     30 C           1.8811    0.7417    0.5851 C.2     1  LIG1        0.2708
     31 CA          2.0773    1.0103    2.1100 C.3     1  LIG1        0.0579
     32 C           3.0788   -3.8335    0.9905 C.3     1  LIG1       -0.0513
     33 C           3.3988    0.5621    2.7584 C.3     1  LIG1        0.0261
     34 C           0.5870   -1.7990    2.0690 C.2     1  LIG1        0.0626
     35 C           4.6788    1.1411    2.2232 C.ar    1  LIG1       -0.0158
     36 C           3.6536   -4.9992    0.1828 C.3     1  LIG1       -0.0558
     37 C           5.2705    1.0228    0.9228 C.ar    1  LIG1        0.0038
     38 C           5.5958    1.8245    2.9981 C.ar    1  LIG1        0.0202
     39 C           6.4638    1.7571    0.9352 C.ar    1  LIG1        0.0598
     40 C           4.5633   -4.5498   -0.9525 C.3     1  LIG1       -0.0653
     41 C           4.9285    0.3572   -0.2745 C.ar    1  LIG1       -0.0523
     42 C           7.2165    1.9704   -0.2360 C.ar    1  LIG1       -0.0371
     43 C           5.6734    0.5595   -1.4402 C.ar    1  LIG1       -0.0611
     44 C           8.0220    2.3829    2.7906 C.2     1  LIG1        0.4196
     45 C           6.7870    1.3834   -1.4260 C.ar    1  LIG1       -0.0598
     46 C           9.3163    2.1842    4.7086 C.3     1  LIG1        0.0835
     47 H           0.9266    2.2106   -1.1046 H       1  LIG1        0.1510
     48 H1          2.0522    2.8147    3.2696 H       1  LIG1        0.2002
     49 H2          1.0081    2.7923    1.9588 H       1  LIG1        0.2002
     50 H3          2.6258    2.9822    1.6795 H       1  LIG1        0.2002
     51 H          -0.9575    4.3694   -2.0604 H       1  LIG1        0.0498
     52 H          -3.1576    3.0427    0.0522 H       1  LIG1        0.0498
     53 H          -1.1038    6.6016   -1.3606 H       1  LIG1        0.0283
     54 H          -0.5800    6.2594    0.2787 H       1  LIG1        0.0283
     55 H          -1.9676    5.1718    1.8630 H       1  LIG1        0.0283
     56 H          -3.6603    4.8251    1.5281 H       1  LIG1        0.0283
     57 H          -3.2824    5.4545   -0.8960 H       1  LIG1        0.0266
     58 H          -2.9710    6.7806    0.2322 H       1  LIG1        0.0266
     59 HA         -0.4828    0.1801   -2.6688 H       1  LIG1        0.0595
     60 H           2.5306    0.7590   -2.4597 H       1  LIG1        0.0293
     61 H           1.4729    1.5083   -3.6249 H       1  LIG1        0.0293
     62 H           1.3130    4.5062   -0.0162 H       1  LIG1        0.0248
     63 H           1.2002    5.6788   -1.3390 H       1  LIG1        0.0248
     64 H           1.3991    3.9929   -1.7149 H       1  LIG1        0.0248
     65 H          -1.2653    2.8921    2.4702 H       1  LIG1        0.0248
     66 H          -1.9221    1.4956    1.6196 H       1  LIG1        0.0248
     67 H          -3.0082    2.5736    2.5004 H       1  LIG1        0.0248
     68 H          -0.0844   -1.4121   -4.2525 H       1  LIG1        0.0235
     69 H           0.9254   -1.6508   -5.6759 H       1  LIG1        0.0235
     70 H           0.2187   -0.0601   -5.3587 H       1  LIG1        0.0235
     71 H           3.8996    0.2844   -4.5313 H       1  LIG1        0.0235
     72 H           2.6183    0.8671   -5.6062 H       1  LIG1        0.0235
     73 H           3.2624   -0.7662   -5.8039 H       1  LIG1        0.0235
     74 H           3.2959   -1.5429   -2.7025 H       1  LIG1        0.0235
     75 H           2.9404   -2.4778   -4.1570 H       1  LIG1        0.0235
     76 H           1.7380   -2.3750   -2.8896 H       1  LIG1        0.0235
     77 HA          2.5686   -1.4811    1.5002 H       1  LIG1        0.0567
     78 H           2.4368   -2.7714   -0.7577 H       1  LIG1        0.0287
     79 H           1.1341   -3.6316    0.0716 H       1  LIG1        0.0287
     80 HA          1.2531    0.6471    2.7072 H       1  LIG1        0.0952
     81 H           2.6254   -4.2364    1.9030 H       1  LIG1        0.0266
     82 H           3.9067   -3.1875    1.3084 H       1  LIG1        0.0266
     83 H           3.5143   -0.5214    2.7874 H       1  LIG1        0.0374
     84 H           3.3321    0.8397    3.8220 H       1  LIG1        0.0374
     85 H           2.8443   -5.6227   -0.2134 H       1  LIG1        0.0263
     86 H           4.2414   -5.6294    0.8611 H       1  LIG1        0.0263
     87 H           5.5765    2.0662    4.0546 H       1  LIG1        0.0818
     88 H           4.0038   -4.0345   -1.7377 H       1  LIG1        0.0230
     89 H           5.0507   -5.4171   -1.4095 H       1  LIG1        0.0230
     90 H           5.3460   -3.8764   -0.5884 H       1  LIG1        0.0230
     91 H           4.0914   -0.3283   -0.3257 H       1  LIG1        0.0624
     92 H           8.1354    2.5514   -0.2239 H       1  LIG1        0.0638
     93 H           5.3802    0.0601   -2.3608 H       1  LIG1        0.0618
     94 H           7.3601    1.5346   -2.3381 H       1  LIG1        0.0618
     95 H           9.2133    1.9690    5.7756 H       1  LIG1        0.0661
     96 H           9.8438    3.1342    4.5876 H       1  LIG1        0.0661
     97 H           9.8823    1.3640    4.2510 H       1  LIG1        0.0661
@<TRIPOS>BOND
     1     1    21    2
     2     2    24    2
     3     3    30    2
     4     4    34   ar
     5     5    34   ar
     6     6    44    1
     7     6    46    1
     8     7    44    2
     9     8    13    1
    10     8    14    1
    11     9    21   am
    12    10    24   am
    13    10    30   am
    14    12    39   ar
    15    12    38   ar
    16    12    44   am
    17    13    15    1
    18    13    22    1
    19    14    16    1
    20    14    23    1
    21    15    17    1
    22    16    17    1
    23    18     9    1
    24    18    24    1
    25    18    20    1
    26    19    20    1
    27    19    27    1
    28    19    26    1
    29    19    25    1
    30    21     8   am
    31    28    34    1
    32    28    29    1
    33    28    10    1
    34    29    32    1
    35    31    33    1
    36    31    11    1
    37    31    30    1
    38    32    36    1
    39    33    35    1
    40    35    38   ar
    41    35    37   ar
    42    36    40    1
    43    37    39   ar
    44    37    41   ar
    45    39    42   ar
    46    41    43   ar
    47    42    45   ar
    48    43    45   ar
    49     9    47    1
    50    11    48    1
    51    11    49    1
    52    11    50    1
    53    13    51    1
    54    14    52    1
    55    15    53    1
    56    15    54    1
    57    16    55    1
    58    16    56    1
    59    17    57    1
    60    17    58    1
    61    18    59    1
    62    20    60    1
    63    20    61    1
    64    22    62    1
    65    22    63    1
    66    22    64    1
    67    23    65    1
    68    23    66    1
    69    23    67    1
    70    25    68    1
    71    25    69    1
    72    25    70    1
    73    26    71    1
    74    26    72    1
    75    26    73    1
    76    27    74    1
    77    27    75    1
    78    27    76    1
    79    28    77    1
    80    29    78    1
    81    29    79    1
    82    31    80    1
    83    32    81    1
    84    32    82    1
    85    33    83    1
    86    33    84    1
    87    36    85    1
    88    36    86    1
    89    38    87    1
    90    40    88    1
    91    40    89    1
    92    40    90    1
    93    41    91    1
    94    42    92    1
    95    43    93    1
    96    45    94    1
    97    46    95    1
    98    46    96    1
    99    46    97    1
@<TRIPOS>MOLECULE
23693553
 97 99 0 0 0
SMALL
GASTEIGER

@<TRIPOS>ATOM
      1 O           2.6291    2.7027   -3.1159 O.2     1  LIG1       -0.2526
      2 O           1.3985   -1.3077   -1.6934 O.2     1  LIG1       -0.2731
      3 O           1.0598    2.2569    0.4065 O.2     1  LIG1       -0.2689
      4 O           2.1636   -3.4475    1.0252 O.co2   1  LIG1       -0.5479
      5 OXT         0.3342   -2.0945    1.2951 O.co2   1  LIG1       -0.5479
      6 O           1.5712    2.1792    8.7932 O.3     1  LIG1       -0.4515
      7 O           0.6942    0.2363    7.8962 O.2     1  LIG1       -0.2227
      8 N           3.2958    1.2123   -4.7503 N.am    1  LIG1       -0.2801
      9 N           1.5049    0.7554   -3.3139 N.am    1  LIG1       -0.2879
     10 N           1.6121    0.0538    0.1475 N.am    1  LIG1       -0.2273
     11 N           0.0385   -0.2739    2.7700 N.4     1  LIG1        0.2276
     12 N           0.7665    2.1529    6.6489 N.ar    1  LIG1       -0.2526
     13 C           3.2389   -0.1345   -5.3645 C.3     1  LIG1        0.0249
     14 C           4.3167    2.1816   -5.1974 C.3     1  LIG1        0.0249
     15 C           3.7985   -0.2216   -6.7937 C.3     1  LIG1       -0.0344
     16 C           4.7938    2.0067   -6.6484 C.3     1  LIG1       -0.0344
     17 C           3.8613    1.1346   -7.4682 C.3     1  LIG1       -0.0497
     18 CA          0.6691    0.9378   -2.1021 C.3     1  LIG1        0.1019
     19 C          -1.9852    1.0493   -1.6434 C.3     1  LIG1       -0.0356
     20 C          -0.7845    0.7243   -2.5722 C.3     1  LIG1       -0.0210
     21 C           2.4952    1.6169   -3.6786 C.2     1  LIG1        0.3033
     22 C           3.9225   -1.1841   -4.4796 C.3     1  LIG1       -0.0464
     23 C           5.5163    2.2212   -4.2443 C.3     1  LIG1       -0.0464
     24 C           1.2424   -0.1845   -1.1875 C.2     1  LIG1        0.2429
     25 C          -2.1668   -0.0421   -0.5810 C.3     1  LIG1       -0.0600
     26 C          -1.8705    2.4225   -0.9701 C.3     1  LIG1       -0.0600
     27 C          -3.2602    1.0755   -2.5197 C.3     1  LIG1       -0.0600
     28 CA          2.3778   -1.0577    0.7982 C.3     1  LIG1        0.0730
     29 C           3.8339   -1.1416    0.3052 C.3     1  LIG1       -0.0286
     30 C           1.1292    1.1263    0.8886 C.2     1  LIG1        0.2708
     31 CA          0.8343    0.9491    2.4085 C.3     1  LIG1        0.0579
     32 C           4.6578    0.0352    0.8652 C.3     1  LIG1       -0.0513
     33 C           0.0862    2.1782    2.9778 C.3     1  LIG1        0.0261
     34 C           1.5466   -2.3596    0.9715 C.2     1  LIG1        0.0626
     35 C           0.3809    2.4374    4.4292 C.ar    1  LIG1       -0.0158
     36 C           6.1695   -0.1813    0.8131 C.3     1  LIG1       -0.0558
     37 C           0.7978    3.6844    4.9889 C.ar    1  LIG1        0.0038
     38 C           0.2956    1.5532    5.4809 C.ar    1  LIG1        0.0202
     39 C           0.9966    3.5021    6.3652 C.ar    1  LIG1        0.0598
     40 C           6.7316   -0.1801   -0.5955 C.3     1  LIG1       -0.0653
     41 C           1.0180    4.9632    4.4283 C.ar    1  LIG1       -0.0523
     42 C           1.3755    4.5841    7.1856 C.ar    1  LIG1       -0.0371
     43 C           1.4043    6.0292    5.2417 C.ar    1  LIG1       -0.0611
     44 C           0.9767    1.4250    7.8408 C.2     1  LIG1        0.4196
     45 C           1.5727    5.8408    6.6049 C.ar    1  LIG1       -0.0598
     46 C           1.9461    1.4435    9.9576 C.3     1  LIG1        0.0835
     47 H           1.6186   -0.2161   -3.5629 H       1  LIG1        0.1510
     48 H1         -0.9193   -0.1242    3.0931 H       1  LIG1        0.2002
     49 H2          0.5206   -0.8795    3.4461 H       1  LIG1        0.2002
     50 H3         -0.0602   -0.9562    1.9639 H       1  LIG1        0.2002
     51 H           2.1776   -0.3990   -5.4440 H       1  LIG1        0.0498
     52 H           3.8415    3.1710   -5.1495 H       1  LIG1        0.0498
     53 H           3.1823   -0.9091   -7.3864 H       1  LIG1        0.0283
     54 H           4.8066   -0.6580   -6.7850 H       1  LIG1        0.0283
     55 H           5.7982    1.5627   -6.6674 H       1  LIG1        0.0283
     56 H           4.8963    2.9909   -7.1211 H       1  LIG1        0.0283
     57 H           2.8647    1.5841   -7.5421 H       1  LIG1        0.0266
     58 H           4.2505    1.0275   -8.4870 H       1  LIG1        0.0266
     59 HA          0.8283    1.9445   -1.7329 H       1  LIG1        0.0595
     60 H          -0.8949   -0.3103   -2.9295 H       1  LIG1        0.0293
     61 H          -0.9067    1.3450   -3.4739 H       1  LIG1        0.0293
     62 H           4.9955   -0.9842   -4.3881 H       1  LIG1        0.0248
     63 H           3.7979   -2.1856   -4.9047 H       1  LIG1        0.0248
     64 H           3.5140   -1.1994   -3.4656 H       1  LIG1        0.0248
     65 H           6.0317    1.2557   -4.2174 H       1  LIG1        0.0248
     66 H           5.2121    2.4584   -3.2206 H       1  LIG1        0.0248
     67 H           6.2360    2.9842   -4.5611 H       1  LIG1        0.0248
     68 H          -2.2853   -1.0293   -1.0431 H       1  LIG1        0.0235
     69 H          -3.0567    0.1453    0.0303 H       1  LIG1        0.0235
     70 H          -1.3128   -0.0908    0.0955 H       1  LIG1        0.0235
     71 H          -1.5397    3.1907   -1.6775 H       1  LIG1        0.0235
     72 H          -1.1769    2.4060   -0.1320 H       1  LIG1        0.0235
     73 H          -2.8339    2.7438   -0.5578 H       1  LIG1        0.0235
     74 H          -3.2112    1.8812   -3.2623 H       1  LIG1        0.0235
     75 H          -4.1575    1.2430   -1.9139 H       1  LIG1        0.0235
     76 H          -3.3932    0.1315   -3.0593 H       1  LIG1        0.0235
     77 HA          2.4934   -0.7906    1.8540 H       1  LIG1        0.0567
     78 H           3.8844   -1.1405   -0.7886 H       1  LIG1        0.0287
     79 H           4.2842   -2.0823    0.6425 H       1  LIG1        0.0287
     80 HA          1.8029    0.8505    2.9135 H       1  LIG1        0.0952
     81 H           4.3989    0.1943    1.9197 H       1  LIG1        0.0266
     82 H           4.3916    0.9583    0.3371 H       1  LIG1        0.0266
     83 H          -0.9985    2.0647    2.8464 H       1  LIG1        0.0374
     84 H           0.3513    3.0814    2.4196 H       1  LIG1        0.0374
     85 H           6.4300   -1.1193    1.3159 H       1  LIG1        0.0263
     86 H           6.6535    0.6229    1.3815 H       1  LIG1        0.0263
     87 H          -0.0025    0.5135    5.5284 H       1  LIG1        0.0818
     88 H           6.3451   -1.0197   -1.1805 H       1  LIG1        0.0230
     89 H           7.8236   -0.2674   -0.5613 H       1  LIG1        0.0230
     90 H           6.4835    0.7497   -1.1153 H       1  LIG1        0.0230
     91 H           0.8802    5.1361    3.3632 H       1  LIG1        0.0624
     92 H           1.5146    4.4737    8.2570 H       1  LIG1        0.0638
     93 H           1.5659    7.0105    4.8038 H       1  LIG1        0.0618
     94 H           1.8651    6.6800    7.2322 H       1  LIG1        0.0618
     95 H           2.3575    2.1482   10.6857 H       1  LIG1        0.0661
     96 H           2.7217    0.7134    9.7065 H       1  LIG1        0.0661
     97 H           1.0778    0.9500   10.4037 H       1  LIG1        0.0661
@<TRIPOS>BOND
     1     1    21    2
     2     2    24    2
     3     3    30    2
     4     4    34   ar
     5     5    34   ar
     6     6    44    1
     7     6    46    1
     8     7    44    2
     9     8    13    1
    10     8    14    1
    11     9    21   am
    12    10    24   am
    13    10    30   am
    14    12    39   ar
    15    12    38   ar
    16    12    44   am
    17    13    15    1
    18    13    22    1
    19    14    16    1
    20    14    23    1
    21    15    17    1
    22    16    17    1
    23    18     9    1
    24    18    24    1
    25    18    20    1
    26    19    20    1
    27    19    27    1
    28    19    26    1
    29    19    25    1
    30    21     8   am
    31    28    34    1
    32    28    29    1
    33    28    10    1
    34    29    32    1
    35    31    33    1
    36    31    11    1
    37    31    30    1
    38    32    36    1
    39    33    35    1
    40    35    38   ar
    41    35    37   ar
    42    36    40    1
    43    37    39   ar
    44    37    41   ar
    45    39    42   ar
    46    41    43   ar
    47    42    45   ar
    48    43    45   ar
    49     9    47    1
    50    11    48    1
    51    11    49    1
    52    11    50    1
    53    13    51    1
    54    14    52    1
    55    15    53    1
    56    15    54    1
    57    16    55    1
    58    16    56    1
    59    17    57    1
    60    17    58    1
    61    18    59    1
    62    20    60    1
    63    20    61    1
    64    22    62    1
    65    22    63    1
    66    22    64    1
    67    23    65    1
    68    23    66    1
    69    23    67    1
    70    25    68    1
    71    25    69    1
    72    25    70    1
    73    26    71    1
    74    26    72    1
    75    26    73    1
    76    27    74    1
    77    27    75    1
    78    27    76    1
    79    28    77    1
    80    29    78    1
    81    29    79    1
    82    31    80    1
    83    32    81    1
    84    32    82    1
    85    33    83    1
    86    33    84    1
    87    36    85    1
    88    36    86    1
    89    38    87    1
    90    40    88    1
    91    40    89    1
    92    40    90    1
    93    41    91    1
    94    42    92    1
    95    43    93    1
    96    45    94    1
    97    46    95    1
    98    46    96    1
    99    46    97    1
@<TRIPOS>MOLECULE
23693553
 97 99 0 0 0
SMALL
GASTEIGER

@<TRIPOS>ATOM
      1 O           0.0313    2.5788   -4.0079 O.2     1  LIG1       -0.2526
      2 O           0.0538   -1.3372   -1.1467 O.2     1  LIG1       -0.2731
      3 O           1.2155    1.9296    0.2432 O.2     1  LIG1       -0.2689
      4 O           0.6895   -3.4217    1.8171 O.co2   1  LIG1       -0.5479
      5 OXT         0.2800   -1.2722    2.4396 O.co2   1  LIG1       -0.5479
      6 O          -1.2195    0.4019    7.5887 O.3     1  LIG1       -0.4515
      7 O           0.2435    1.5994    8.9216 O.2     1  LIG1       -0.2227
      8 N          -1.2500    3.6173   -2.3804 N.am    1  LIG1       -0.2801
      9 N          -0.0398    1.6723   -1.9271 N.am    1  LIG1       -0.2879
     10 N           1.6576   -0.3143    0.1247 N.am    1  LIG1       -0.2273
     11 N           2.0603    0.0240    3.3311 N.4     1  LIG1        0.2276
     12 N           0.2697    1.8242    6.6240 N.ar    1  LIG1       -0.2526
     13 C          -2.0496    3.4741   -1.1393 C.3     1  LIG1        0.0249
     14 C          -1.3066    4.8564   -3.1869 C.3     1  LIG1        0.0249
     15 C          -2.7303    4.7588   -0.6553 C.3     1  LIG1       -0.0344
     16 C          -1.8094    6.1186   -2.4583 C.3     1  LIG1       -0.0344
     17 C          -1.8682    5.9681   -0.9515 C.3     1  LIG1       -0.0497
     18 CA          0.9758    0.6414   -2.1958 C.3     1  LIG1        0.1019
     19 C           3.4004    0.4537   -3.3175 C.3     1  LIG1       -0.0356
     20 C           2.3666    1.2659   -2.4836 C.3     1  LIG1       -0.0210
     21 C          -0.4078    2.6050   -2.8617 C.2     1  LIG1        0.3033
     22 C          -3.0972    2.3623   -1.2605 C.3     1  LIG1       -0.0464
     23 C          -2.0860    4.6827   -4.4966 C.3     1  LIG1       -0.0464
     24 C           0.9008   -0.4422   -1.0561 C.2     1  LIG1        0.2429
     25 C           4.0992   -0.5830   -2.4404 C.3     1  LIG1       -0.0600
     26 C           2.7749   -0.2635   -4.5243 C.3     1  LIG1       -0.0600
     27 C           4.4763    1.4306   -3.8358 C.3     1  LIG1       -0.0600
     28 CA          1.9393   -1.6193    0.8064 C.3     1  LIG1        0.0730
     29 C           2.7894   -2.6783    0.0723 C.3     1  LIG1       -0.0286
     30 C           1.4888    0.8720    0.8439 C.2     1  LIG1        0.2708
     31 CA          1.7469    1.1200    2.3657 C.3     1  LIG1        0.0579
     32 C           2.1581   -3.5396   -1.0208 C.3     1  LIG1       -0.0513
     33 C           0.5246    1.9239    2.9163 C.3     1  LIG1        0.0261
     34 C           0.7860   -2.1817    1.6919 C.2     1  LIG1        0.0626
     35 C           0.5901    2.1437    4.4010 C.ar    1  LIG1       -0.0158
     36 C           3.1845   -4.4444   -1.7220 C.3     1  LIG1       -0.0558
     37 C           1.5359    2.9370    5.1067 C.ar    1  LIG1        0.0038
     38 C          -0.1863    1.5106    5.3482 C.ar    1  LIG1        0.0202
     39 C           1.3522    2.6979    6.4735 C.ar    1  LIG1        0.0598
     40 C           3.9742   -5.3478   -0.7867 C.3     1  LIG1       -0.0653
     41 C           2.5756    3.7956    4.6888 C.ar    1  LIG1       -0.0523
     42 C           2.2028    3.2852    7.4294 C.ar    1  LIG1       -0.0371
     43 C           3.4189    4.3762    5.6381 C.ar    1  LIG1       -0.0611
     44 C          -0.2295    1.2948    7.8377 C.2     1  LIG1        0.4196
     45 C           3.2366    4.1178    6.9893 C.ar    1  LIG1       -0.0598
     46 C          -1.7085   -0.2576    8.7570 C.3     1  LIG1        0.0835
     47 H           0.0526    2.0587   -0.9987 H       1  LIG1        0.1510
     48 H1          2.0766    0.3365    4.3051 H       1  LIG1        0.2002
     49 H2          2.9127   -0.5070    3.1647 H       1  LIG1        0.2002
     50 H3          1.2341   -0.6297    3.2752 H       1  LIG1        0.2002
     51 H          -1.3529    3.1920   -0.3421 H       1  LIG1        0.0498
     52 H          -0.2637    5.0633   -3.4691 H       1  LIG1        0.0498
     53 H          -2.9236    4.6883    0.4221 H       1  LIG1        0.0283
     54 H          -3.7095    4.8821   -1.1369 H       1  LIG1        0.0283
     55 H          -2.8149    6.3820   -2.8147 H       1  LIG1        0.0283
     56 H          -1.1741    6.9727   -2.7222 H       1  LIG1        0.0283
     57 H          -0.8641    5.8512   -0.5279 H       1  LIG1        0.0266
     58 H          -2.3117    6.8654   -0.5056 H       1  LIG1        0.0266
     59 HA          0.6264    0.1408   -3.1060 H       1  LIG1        0.0595
     60 H           2.8441    1.5774   -1.5481 H       1  LIG1        0.0293
     61 H           2.2103    2.2072   -3.0257 H       1  LIG1        0.0293
     62 H          -3.8062    2.5771   -2.0667 H       1  LIG1        0.0248
     63 H          -3.6611    2.2596   -0.3268 H       1  LIG1        0.0248
     64 H          -2.6406    1.3912   -1.4746 H       1  LIG1        0.0248
     65 H          -3.1239    4.3945   -4.3012 H       1  LIG1        0.0248
     66 H          -1.6458    3.9194   -5.1420 H       1  LIG1        0.0248
     67 H          -2.0891    5.6198   -5.0669 H       1  LIG1        0.0248
     68 H           4.4601   -0.1454   -1.5029 H       1  LIG1        0.0235
     69 H           4.9581   -1.0357   -2.9481 H       1  LIG1        0.0235
     70 H           3.4053   -1.3860   -2.2103 H       1  LIG1        0.0235
     71 H           2.2172    0.4347   -5.1567 H       1  LIG1        0.0235
     72 H           2.0938   -1.0637   -4.2131 H       1  LIG1        0.0235
     73 H           3.5474   -0.7336   -5.1435 H       1  LIG1        0.0235
     74 H           4.0448    2.1609   -4.5299 H       1  LIG1        0.0235
     75 H           5.2726    0.8997   -4.3704 H       1  LIG1        0.0235
     76 H           4.9398    1.9826   -3.0108 H       1  LIG1        0.0235
     77 HA          2.6839   -1.3224    1.5429 H       1  LIG1        0.0567
     78 H           3.1442   -3.3703    0.8500 H       1  LIG1        0.0287
     79 H           3.6994   -2.1997   -0.3014 H       1  LIG1        0.0287
     80 HA          2.6391    1.7561    2.4048 H       1  LIG1        0.0952
     81 H           1.7050   -2.9198   -1.7968 H       1  LIG1        0.0266
     82 H           1.3609   -4.1618   -0.6003 H       1  LIG1        0.0266
     83 H          -0.4049    1.3948    2.6666 H       1  LIG1        0.0374
     84 H           0.4574    2.9004    2.4202 H       1  LIG1        0.0374
     85 H           3.8885   -3.8246   -2.2903 H       1  LIG1        0.0263
     86 H           2.6557   -5.0673   -2.4528 H       1  LIG1        0.0263
     87 H          -1.0100    0.8157    5.2214 H       1  LIG1        0.0818
     88 H           4.6428   -4.7698   -0.1410 H       1  LIG1        0.0230
     89 H           4.6006   -6.0336   -1.3674 H       1  LIG1        0.0230
     90 H           3.3085   -5.9434   -0.1557 H       1  LIG1        0.0230
     91 H           2.7285    4.0179    3.6363 H       1  LIG1        0.0624
     92 H           2.0768    3.1042    8.4942 H       1  LIG1        0.0638
     93 H           4.2211    5.0374    5.3170 H       1  LIG1        0.0618
     94 H           3.9003    4.5744    7.7208 H       1  LIG1        0.0618
     95 H          -2.4187   -1.0277    8.4415 H       1  LIG1        0.0661
     96 H          -2.2283    0.4543    9.4045 H       1  LIG1        0.0661
     97 H          -0.8906   -0.7470    9.2972 H       1  LIG1        0.0661
@<TRIPOS>BOND
     1     1    21    2
     2     2    24    2
     3     3    30    2
     4     4    34   ar
     5     5    34   ar
     6     6    44    1
     7     6    46    1
     8     7    44    2
     9     8    13    1
    10     8    14    1
    11     9    21   am
    12    10    24   am
    13    10    30   am
    14    12    39   ar
    15    12    38   ar
    16    12    44   am
    17    13    15    1
    18    13    22    1
    19    14    16    1
    20    14    23    1
    21    15    17    1
    22    16    17    1
    23    18     9    1
    24    18    24    1
    25    18    20    1
    26    19    20    1
    27    19    27    1
    28    19    26    1
    29    19    25    1
    30    21     8   am
    31    28    34    1
    32    28    29    1
    33    28    10    1
    34    29    32    1
    35    31    33    1
    36    31    11    1
    37    31    30    1
    38    32    36    1
    39    33    35    1
    40    35    38   ar
    41    35    37   ar
    42    36    40    1
    43    37    39   ar
    44    37    41   ar
    45    39    42   ar
    46    41    43   ar
    47    42    45   ar
    48    43    45   ar
    49     9    47    1
    50    11    48    1
    51    11    49    1
    52    11    50    1
    53    13    51    1
    54    14    52    1
    55    15    53    1
    56    15    54    1
    57    16    55    1
    58    16    56    1
    59    17    57    1
    60    17    58    1
    61    18    59    1
    62    20    60    1
    63    20    61    1
    64    22    62    1
    65    22    63    1
    66    22    64    1
    67    23    65    1
    68    23    66    1
    69    23    67    1
    70    25    68    1
    71    25    69    1
    72    25    70    1
    73    26    71    1
    74    26    72    1
    75    26    73    1
    76    27    74    1
    77    27    75    1
    78    27    76    1
    79    28    77    1
    80    29    78    1
    81    29    79    1
    82    31    80    1
    83    32    81    1
    84    32    82    1
    85    33    83    1
    86    33    84    1
    87    36    85    1
    88    36    86    1
    89    38    87    1
    90    40    88    1
    91    40    89    1
    92    40    90    1
    93    41    91    1
    94    42    92    1
    95    43    93    1
    96    45    94    1
    97    46    95    1
    98    46    96    1
    99    46    97    1
@<TRIPOS>MOLECULE
23693553
 97 99 0 0 0
SMALL
GASTEIGER

@<TRIPOS>ATOM
      1 O           0.9718    3.4079   -2.3818 O.2     1  LIG1       -0.2526
      2 O           1.7833   -1.5085   -2.0809 O.2     1  LIG1       -0.2731
      3 O           0.3053    1.5783    0.1894 O.2     1  LIG1       -0.2689
      4 O           1.9427   -4.0157    0.2866 O.co2   1  LIG1       -0.5479
      5 OXT        -0.0240   -2.8269    0.3463 O.co2   1  LIG1       -0.5479
      6 O           4.5040    2.8547    6.5920 O.3     1  LIG1       -0.4515
      7 O           3.2374    2.5318    8.5032 O.2     1  LIG1       -0.2227
      8 N           3.2369    3.2793   -2.7975 N.am    1  LIG1       -0.2801
      9 N           1.9116    1.3610   -2.6029 N.am    1  LIG1       -0.2879
     10 N           1.3925   -0.4426   -0.0603 N.am    1  LIG1       -0.2273
     11 N           2.2022    2.1083    2.1155 N.4     1  LIG1        0.2276
     12 N           2.6453    1.5523    6.4951 N.ar    1  LIG1       -0.2526
     13 C           4.4761    2.4807   -2.9411 C.3     1  LIG1        0.0249
     14 C           3.3091    4.7550   -2.7400 C.3     1  LIG1        0.0249
     15 C           5.6607    3.2144   -3.5907 C.3     1  LIG1       -0.0344
     16 C           4.5484    5.3801   -3.3991 C.3     1  LIG1       -0.0344
     17 C           5.2233    4.4362   -4.3747 C.3     1  LIG1       -0.0497
     18 CA          0.6840    0.5917   -2.3221 C.3     1  LIG1        0.1019
     19 C          -1.3560   -0.4970   -3.6168 C.3     1  LIG1       -0.0356
     20 C           0.0644    0.1389   -3.6639 C.3     1  LIG1       -0.0210
     21 C           1.9654    2.7227   -2.6066 C.2     1  LIG1        0.3033
     22 C           4.9080    1.8859   -1.5967 C.3     1  LIG1       -0.0464
     23 C           3.1771    5.2674   -1.2989 C.3     1  LIG1       -0.0464
     24 C           1.2493   -0.5702   -1.4716 C.2     1  LIG1        0.2429
     25 C          -1.3580   -1.8410   -2.8749 C.3     1  LIG1       -0.0600
     26 C          -2.3752    0.4425   -2.9504 C.3     1  LIG1       -0.0600
     27 C          -1.8102   -0.7513   -5.0695 C.3     1  LIG1       -0.0600
     28 CA          1.9963   -1.6489    0.5677 C.3     1  LIG1        0.0730
     29 C           3.5290   -1.5932    0.6740 C.3     1  LIG1       -0.0286
     30 C           0.8913    0.6061    0.6938 C.2     1  LIG1        0.2708
     31 CA          1.2500    0.9167    2.1843 C.3     1  LIG1        0.0579
     32 C           4.3390   -1.8806   -0.5871 C.3     1  LIG1       -0.0513
     33 C           1.7257   -0.0650    3.2554 C.3     1  LIG1        0.0261
     34 C           1.2359   -2.9762    0.3105 C.2     1  LIG1        0.0626
     35 C           1.8323    0.5156    4.6428 C.ar    1  LIG1       -0.0158
     36 C           5.8484   -1.7180   -0.3609 C.3     1  LIG1       -0.0558
     37 C           0.9135    0.3190    5.7180 C.ar    1  LIG1        0.0038
     38 C           2.8828    1.2471    5.1559 C.ar    1  LIG1        0.0202
     39 C           1.4408    0.9449    6.8551 C.ar    1  LIG1        0.0598
     40 C           6.4306   -2.6740    0.6690 C.3     1  LIG1       -0.0653
     41 C          -0.3112   -0.3764    5.8289 C.ar    1  LIG1       -0.0523
     42 C           0.7728    0.8870    8.0942 C.ar    1  LIG1       -0.0371
     43 C          -0.9715   -0.4361    7.0593 C.ar    1  LIG1       -0.0611
     44 C           3.4778    2.3393    7.3226 C.2     1  LIG1        0.4196
     45 C          -0.4330    0.1864    8.1768 C.ar    1  LIG1       -0.0598
     46 C           5.3692    3.7108    7.3410 C.3     1  LIG1        0.0835
     47 H           2.6062    0.8394   -3.1138 H       1  LIG1        0.1510
     48 H1          2.2286    2.6218    3.0015 H       1  LIG1        0.2002
     49 H2          1.8326    2.7439    1.3847 H       1  LIG1        0.2002
     50 H3          3.1464    1.8268    1.8318 H       1  LIG1        0.2002
     51 H           4.2427    1.6505   -3.6166 H       1  LIG1        0.0498
     52 H           2.4378    5.1271   -3.2966 H       1  LIG1        0.0498
     53 H           6.2032    2.5227   -4.2470 H       1  LIG1        0.0283
     54 H           6.3844    3.5255   -2.8254 H       1  LIG1        0.0283
     55 H           5.2793    5.6739   -2.6333 H       1  LIG1        0.0283
     56 H           4.2638    6.3085   -3.9088 H       1  LIG1        0.0283
     57 H           4.5449    4.1602   -5.1897 H       1  LIG1        0.0266
     58 H           6.0964    4.9236   -4.8223 H       1  LIG1        0.0266
     59 HA         -0.0452    1.2130   -1.8196 H       1  LIG1        0.0595
     60 H           0.7480   -0.5534   -4.1744 H       1  LIG1        0.0293
     61 H           0.0118    1.0221   -4.3177 H       1  LIG1        0.0293
     62 H           5.1732    2.6741   -0.8842 H       1  LIG1        0.0248
     63 H           5.7794    1.2358   -1.7261 H       1  LIG1        0.0248
     64 H           4.1132    1.2922   -1.1369 H       1  LIG1        0.0248
     65 H           3.9943    4.8950   -0.6723 H       1  LIG1        0.0248
     66 H           2.2399    4.9453   -0.8351 H       1  LIG1        0.0248
     67 H           3.1973    6.3622   -1.2740 H       1  LIG1        0.0248
     68 H          -0.5941   -2.5173   -3.2735 H       1  LIG1        0.0235
     69 H          -2.3268   -2.3449   -2.9727 H       1  LIG1        0.0235
     70 H          -1.1775   -1.7073   -1.8056 H       1  LIG1        0.0235
     71 H          -2.3654    1.4331   -3.4179 H       1  LIG1        0.0235
     72 H          -2.1733    0.5695   -1.8818 H       1  LIG1        0.0235
     73 H          -3.3929    0.0439   -3.0375 H       1  LIG1        0.0235
     74 H          -1.8596    0.1838   -5.6387 H       1  LIG1        0.0235
     75 H          -2.8052   -1.2100   -5.1017 H       1  LIG1        0.0235
     76 H          -1.1180   -1.4238   -5.5886 H       1  LIG1        0.0235
     77 HA          1.6917   -1.5937    1.6031 H       1  LIG1        0.0567
     78 H           3.8224   -2.3201    1.4416 H       1  LIG1        0.0287
     79 H           3.8248   -0.6060    1.0506 H       1  LIG1        0.0287
     80 HA          0.3247    1.3603    2.5819 H       1  LIG1        0.0952
     81 H           4.0597   -1.1789   -1.3776 H       1  LIG1        0.0266
     82 H           4.1281   -2.8908   -0.9537 H       1  LIG1        0.0266
     83 H           2.7151   -0.4640    3.0130 H       1  LIG1        0.0374
     84 H           1.0258   -0.9069    3.3084 H       1  LIG1        0.0374
     85 H           6.0650   -0.6883   -0.0522 H       1  LIG1        0.0263
     86 H           6.3616   -1.8752   -1.3167 H       1  LIG1        0.0263
     87 H           3.8179    1.5528    4.7044 H       1  LIG1        0.0818
     88 H           6.0563   -2.4589    1.6744 H       1  LIG1        0.0230
     89 H           7.5203   -2.5724    0.6998 H       1  LIG1        0.0230
     90 H           6.1914   -3.7128    0.4229 H       1  LIG1        0.0230
     91 H          -0.7432   -0.8936    4.9749 H       1  LIG1        0.0624
     92 H           1.1803    1.3561    8.9865 H       1  LIG1        0.0638
     93 H          -1.9056   -0.9876    7.1437 H       1  LIG1        0.0618
     94 H          -0.9494    0.1203    9.1325 H       1  LIG1        0.0618
     95 H           5.9917    4.2631    6.6314 H       1  LIG1        0.0661
     96 H           6.0186    3.1101    7.9839 H       1  LIG1        0.0661
     97 H           4.8011    4.4368    7.9317 H       1  LIG1        0.0661
@<TRIPOS>BOND
     1     1    21    2
     2     2    24    2
     3     3    30    2
     4     4    34   ar
     5     5    34   ar
     6     6    44    1
     7     6    46    1
     8     7    44    2
     9     8    13    1
    10     8    14    1
    11     9    21   am
    12    10    24   am
    13    10    30   am
    14    12    39   ar
    15    12    38   ar
    16    12    44   am
    17    13    15    1
    18    13    22    1
    19    14    16    1
    20    14    23    1
    21    15    17    1
    22    16    17    1
    23    18     9    1
    24    18    24    1
    25    18    20    1
    26    19    20    1
    27    19    27    1
    28    19    26    1
    29    19    25    1
    30    21     8   am
    31    28    34    1
    32    28    29    1
    33    28    10    1
    34    29    32    1
    35    31    33    1
    36    31    11    1
    37    31    30    1
    38    32    36    1
    39    33    35    1
    40    35    38   ar
    41    35    37   ar
    42    36    40    1
    43    37    39   ar
    44    37    41   ar
    45    39    42   ar
    46    41    43   ar
    47    42    45   ar
    48    43    45   ar
    49     9    47    1
    50    11    48    1
    51    11    49    1
    52    11    50    1
    53    13    51    1
    54    14    52    1
    55    15    53    1
    56    15    54    1
    57    16    55    1
    58    16    56    1
    59    17    57    1
    60    17    58    1
    61    18    59    1
    62    20    60    1
    63    20    61    1
    64    22    62    1
    65    22    63    1
    66    22    64    1
    67    23    65    1
    68    23    66    1
    69    23    67    1
    70    25    68    1
    71    25    69    1
    72    25    70    1
    73    26    71    1
    74    26    72    1
    75    26    73    1
    76    27    74    1
    77    27    75    1
    78    27    76    1
    79    28    77    1
    80    29    78    1
    81    29    79    1
    82    31    80    1
    83    32    81    1
    84    32    82    1
    85    33    83    1
    86    33    84    1
    87    36    85    1
    88    36    86    1
    89    38    87    1
    90    40    88    1
    91    40    89    1
    92    40    90    1
    93    41    91    1
    94    42    92    1
    95    43    93    1
    96    45    94    1
    97    46    95    1
    98    46    96    1
    99    46    97    1
@<TRIPOS>MOLECULE
23693553
 97 99 0 0 0
SMALL
GASTEIGER

@<TRIPOS>ATOM
      1 O           3.1446    1.2688   -3.5856 O.2     1  LIG1       -0.2526
      2 O           1.1415   -1.3282   -1.7128 O.2     1  LIG1       -0.2731
      3 O           0.9531    2.2756    0.2903 O.2     1  LIG1       -0.2689
      4 O           2.0511   -3.4202    1.0450 O.co2   1  LIG1       -0.5479
      5 OXT         0.2295   -2.0497    1.2485 O.co2   1  LIG1       -0.5479
      6 O           1.0133    0.1134    7.5546 O.3     1  LIG1       -0.4515
      7 O           1.4918    2.0347    8.7570 O.2     1  LIG1       -0.2227
      8 N           2.4297   -0.0324   -5.3566 N.am    1  LIG1       -0.2801
      9 N           1.0062    0.5050   -3.5756 N.am    1  LIG1       -0.2879
     10 N           1.5406    0.0747    0.0675 N.am    1  LIG1       -0.2273
     11 N          -0.0217   -0.2205    2.6946 N.4     1  LIG1        0.2276
     12 N           0.8147    2.1377    6.5513 N.ar    1  LIG1       -0.2526
     13 C           1.3768   -0.8115   -6.0464 C.3     1  LIG1        0.0249
     14 C           3.7881    0.0232   -5.9300 C.3     1  LIG1        0.0249
     15 C           1.4914   -0.8271   -7.5830 C.3     1  LIG1       -0.0344
     16 C           3.8469   -0.1584   -7.4534 C.3     1  LIG1       -0.0344
     17 C           2.5165    0.1610   -8.1102 C.3     1  LIG1       -0.0497
     18 CA          0.7628    0.9974   -2.2130 C.3     1  LIG1        0.1019
     19 C          -1.9490    0.8950   -2.5275 C.3     1  LIG1       -0.0356
     20 C          -0.6456    1.6174   -2.0807 C.3     1  LIG1       -0.0210
     21 C           2.2562    0.6177   -4.1319 C.2     1  LIG1        0.3033
     22 C           1.2866   -2.2466   -5.5135 C.3     1  LIG1       -0.0464
     23 C           4.7351   -0.9617   -5.2363 C.3     1  LIG1       -0.0464
     24 C           1.1635   -0.1732   -1.2640 C.2     1  LIG1        0.2429
     25 C          -3.1205    1.8638   -2.2218 C.3     1  LIG1       -0.0600
     26 C          -1.9948    0.5937   -4.0331 C.3     1  LIG1       -0.0600
     27 C          -2.1782   -0.3964   -1.7338 C.3     1  LIG1       -0.0600
     28 CA          2.2865   -1.0459    0.7277 C.3     1  LIG1        0.0730
     29 C           3.7411   -1.1484    0.2321 C.3     1  LIG1       -0.0286
     30 C           1.0515    1.1542    0.7946 C.2     1  LIG1        0.2708
     31 CA          0.7800    0.9933    2.3186 C.3     1  LIG1        0.0579
     32 C           4.5752    0.0260    0.7857 C.3     1  LIG1       -0.0513
     33 C           0.0547    2.2289    2.8986 C.3     1  LIG1        0.0261
     34 C           1.4407   -2.3339    0.9346 C.2     1  LIG1        0.0626
     35 C           0.3613    2.4649    4.3518 C.ar    1  LIG1       -0.0158
     36 C           6.0844   -0.2095    0.7646 C.3     1  LIG1       -0.0558
     37 C           0.7419    3.7123    4.9326 C.ar    1  LIG1        0.0038
     38 C           0.3385    1.5492    5.3813 C.ar    1  LIG1        0.0202
     39 C           0.9814    3.5013    6.2957 C.ar    1  LIG1        0.0598
     40 C           6.6738   -0.2276   -0.6328 C.3     1  LIG1       -0.0653
     41 C           0.9137    5.0120    4.4053 C.ar    1  LIG1       -0.0523
     42 C           1.3659    4.5580    7.1418 C.ar    1  LIG1       -0.0371
     43 C           1.3016    6.0609    5.2421 C.ar    1  LIG1       -0.0611
     44 C           1.1208    1.4556    7.7482 C.2     1  LIG1        0.4196
     45 C           1.5187    5.8355    6.5943 C.ar    1  LIG1       -0.0598
     46 C           1.4948   -0.6740    8.6455 C.3     1  LIG1        0.0835
     47 H           0.6289   -0.4225   -3.7019 H       1  LIG1        0.1510
     48 H1         -0.9581   -0.0644    3.0700 H       1  LIG1        0.2002
     49 H2          0.4866   -0.8531    3.3240 H       1  LIG1        0.2002
     50 H3         -0.1660   -0.8871    1.8826 H       1  LIG1        0.2002
     51 H           0.4228   -0.3210   -5.8234 H       1  LIG1        0.0498
     52 H           4.1718    1.0320   -5.7255 H       1  LIG1        0.0498
     53 H           0.5104   -0.6167   -8.0263 H       1  LIG1        0.0283
     54 H           1.7620   -1.8319   -7.9351 H       1  LIG1        0.0283
     55 H           4.1316   -1.1880   -7.7075 H       1  LIG1        0.0283
     56 H           4.6339    0.4834   -7.8676 H       1  LIG1        0.0283
     57 H           2.2104    1.1914   -7.8957 H       1  LIG1        0.0266
     58 H           2.6014    0.0637   -9.1981 H       1  LIG1        0.0266
     59 HA          1.4865    1.7993   -2.0247 H       1  LIG1        0.0595
     60 H          -0.6046    2.5663   -2.6371 H       1  LIG1        0.0293
     61 H          -0.8107    1.9057   -1.0399 H       1  LIG1        0.0293
     62 H           2.1965   -2.8114   -5.7398 H       1  LIG1        0.0248
     63 H           0.4412   -2.7728   -5.9706 H       1  LIG1        0.0248
     64 H           1.1490   -2.2779   -4.4295 H       1  LIG1        0.0248
     65 H           4.4167   -1.9972   -5.3936 H       1  LIG1        0.0248
     66 H           4.7716   -0.7914   -4.1555 H       1  LIG1        0.0248
     67 H           5.7534   -0.8574   -5.6259 H       1  LIG1        0.0248
     68 H          -3.1650    2.1127   -1.1554 H       1  LIG1        0.0235
     69 H          -4.0866    1.4274   -2.4994 H       1  LIG1        0.0235
     70 H          -3.0104    2.8024   -2.7785 H       1  LIG1        0.0235
     71 H          -1.3907   -0.2774   -4.2956 H       1  LIG1        0.0235
     72 H          -1.6496    1.4502   -4.6226 H       1  LIG1        0.0235
     73 H          -3.0168    0.3640   -4.3581 H       1  LIG1        0.0235
     74 H          -1.4474   -1.1658   -1.9956 H       1  LIG1        0.0235
     75 H          -3.1718   -0.8113   -1.9403 H       1  LIG1        0.0235
     76 H          -2.1137   -0.2157   -0.6551 H       1  LIG1        0.0235
     77 HA          2.4114   -0.7665    1.7789 H       1  LIG1        0.0567
     78 H           3.7874   -1.1530   -0.8626 H       1  LIG1        0.0287
     79 H           4.1826   -2.0916    0.5732 H       1  LIG1        0.0287
     80 HA          1.7558    0.8899    2.8084 H       1  LIG1        0.0952
     81 H           4.3027    0.2070    1.8335 H       1  LIG1        0.0266
     82 H           4.3294    0.9446    0.2393 H       1  LIG1        0.0266
     83 H          -1.0317    2.1347    2.7701 H       1  LIG1        0.0374
     84 H           0.3390    3.1310    2.3475 H       1  LIG1        0.0374
     85 H           6.3246   -1.1462    1.2812 H       1  LIG1        0.0263
     86 H           6.5668    0.5939    1.3355 H       1  LIG1        0.0263
     87 H           0.0751    0.5010    5.4009 H       1  LIG1        0.0818
     88 H           6.2876   -1.0668   -1.2176 H       1  LIG1        0.0230
     89 H           7.7627   -0.3272   -0.5753 H       1  LIG1        0.0230
     90 H           6.4479    0.7024   -1.1638 H       1  LIG1        0.0230
     91 H           0.7467    5.2126    3.3500 H       1  LIG1        0.0624
     92 H           1.5527    4.4029    8.2014 H       1  LIG1        0.0638
     93 H           1.4342    7.0586    4.8299 H       1  LIG1        0.0618
     94 H           1.8194    6.6601    7.2367 H       1  LIG1        0.0618
     95 H           1.6745   -1.6864    8.2726 H       1  LIG1        0.0661
     96 H           0.7384   -0.7171    9.4334 H       1  LIG1        0.0661
     97 H           2.4413   -0.2853    9.0356 H       1  LIG1        0.0661
@<TRIPOS>BOND
     1     1    21    2
     2     2    24    2
     3     3    30    2
     4     4    34   ar
     5     5    34   ar
     6     6    44    1
     7     6    46    1
     8     7    44    2
     9     8    13    1
    10     8    14    1
    11     9    21   am
    12    10    24   am
    13    10    30   am
    14    12    39   ar
    15    12    38   ar
    16    12    44   am
    17    13    15    1
    18    13    22    1
    19    14    16    1
    20    14    23    1
    21    15    17    1
    22    16    17    1
    23    18     9    1
    24    18    24    1
    25    18    20    1
    26    19    20    1
    27    19    27    1
    28    19    26    1
    29    19    25    1
    30    21     8   am
    31    28    34    1
    32    28    29    1
    33    28    10    1
    34    29    32    1
    35    31    33    1
    36    31    11    1
    37    31    30    1
    38    32    36    1
    39    33    35    1
    40    35    38   ar
    41    35    37   ar
    42    36    40    1
    43    37    39   ar
    44    37    41   ar
    45    39    42   ar
    46    41    43   ar
    47    42    45   ar
    48    43    45   ar
    49     9    47    1
    50    11    48    1
    51    11    49    1
    52    11    50    1
    53    13    51    1
    54    14    52    1
    55    15    53    1
    56    15    54    1
    57    16    55    1
    58    16    56    1
    59    17    57    1
    60    17    58    1
    61    18    59    1
    62    20    60    1
    63    20    61    1
    64    22    62    1
    65    22    63    1
    66    22    64    1
    67    23    65    1
    68    23    66    1
    69    23    67    1
    70    25    68    1
    71    25    69    1
    72    25    70    1
    73    26    71    1
    74    26    72    1
    75    26    73    1
    76    27    74    1
    77    27    75    1
    78    27    76    1
    79    28    77    1
    80    29    78    1
    81    29    79    1
    82    31    80    1
    83    32    81    1
    84    32    82    1
    85    33    83    1
    86    33    84    1
    87    36    85    1
    88    36    86    1
    89    38    87    1
    90    40    88    1
    91    40    89    1
    92    40    90    1
    93    41    91    1
    94    42    92    1
    95    43    93    1
    96    45    94    1
    97    46    95    1
    98    46    96    1
    99    46    97    1
@<TRIPOS>MOLECULE
23693553
 97 99 0 0 0
SMALL
GASTEIGER

@<TRIPOS>ATOM
      1 O           0.5636   -4.2446    0.6633 O.2     1  LIG1       -0.2526
      2 O           0.8765    0.0167   -2.1451 O.2     1  LIG1       -0.2731
      3 O           0.3759    1.5579    1.4666 O.2     1  LIG1       -0.2689
      4 O           4.3087   -1.6231    0.6763 O.co2   1  LIG1       -0.5479
      5 OXT         3.6594    0.3749   -0.2002 O.co2   1  LIG1       -0.5479
      6 O           6.3922    3.5754    1.0425 O.3     1  LIG1       -0.4515
      7 O           6.3476    4.9067    2.9355 O.2     1  LIG1       -0.2227
      8 N           2.7643   -4.7073    0.1381 N.am    1  LIG1       -0.2801
      9 N           1.4728   -3.1551   -1.0972 N.am    1  LIG1       -0.2879
     10 N           1.0745   -0.1787    0.1352 N.am    1  LIG1       -0.2273
     11 N           2.4098    1.9297   -1.5250 N.4     1  LIG1        0.2276
     12 N           4.3974    4.2990    1.8528 N.ar    1  LIG1       -0.2526
     13 C           3.8585   -4.6624   -0.8703 C.3     1  LIG1        0.0249
     14 C           3.1146   -4.8583    1.5854 C.3     1  LIG1        0.0249
     15 C           5.1767   -5.3224   -0.4435 C.3     1  LIG1       -0.0344
     16 C           4.5196   -5.4045    1.8946 C.3     1  LIG1       -0.0344
     17 C           5.5807   -4.8981    0.9484 C.3     1  LIG1       -0.0497
     18 CA          0.3804   -2.1871   -1.3289 C.3     1  LIG1        0.1019
     19 C          -2.2552   -1.7181   -1.1558 C.3     1  LIG1       -0.0356
     20 C          -0.9906   -2.5098   -0.6946 C.3     1  LIG1       -0.0210
     21 C           1.5261   -4.0732   -0.0736 C.2     1  LIG1        0.3033
     22 C           3.4282   -5.3402   -2.1835 C.3     1  LIG1       -0.0464
     23 C           2.1316   -5.7418    2.3791 C.3     1  LIG1       -0.0464
     24 C           0.8048   -0.7015   -1.1329 C.2     1  LIG1        0.2429
     25 C          -2.3175   -0.3178   -0.5218 C.3     1  LIG1       -0.0600
     26 C          -2.3474   -1.5896   -2.6833 C.3     1  LIG1       -0.0600
     27 C          -3.4945   -2.5023   -0.6648 C.3     1  LIG1       -0.0600
     28 CA          2.0385   -0.9005    1.0066 C.3     1  LIG1        0.0730
     29 C           2.0782   -0.5749    2.5096 C.3     1  LIG1       -0.0286
     30 C           0.9122    1.1881    0.4170 C.2     1  LIG1        0.2708
     31 CA          1.2177    2.2362   -0.6839 C.3     1  LIG1        0.0579
     32 C           0.7974   -0.9927    3.2426 C.3     1  LIG1       -0.0513
     33 C           1.2929    3.6728   -0.1422 C.3     1  LIG1        0.0261
     34 C           3.4957   -0.6897    0.4842 C.2     1  LIG1        0.0626
     35 C           2.3773    4.0223    0.8398 C.ar    1  LIG1       -0.0158
     36 C           0.9139   -0.8098    4.7592 C.3     1  LIG1       -0.0558
     37 C           2.2238    4.8990    1.9630 C.ar    1  LIG1        0.0038
     38 C           3.7040    3.6478    0.8333 C.ar    1  LIG1        0.0202
     39 C           3.4669    5.0262    2.5946 C.ar    1  LIG1        0.0598
     40 C           1.6695   -1.9459    5.4320 C.3     1  LIG1       -0.0653
     41 C           1.1226    5.6122    2.4895 C.ar    1  LIG1       -0.0523
     42 C           3.6238    5.8186    3.7493 C.ar    1  LIG1       -0.0371
     43 C           1.2796    6.4111    3.6251 C.ar    1  LIG1       -0.0611
     44 C           5.7985    4.2811    2.0390 C.2     1  LIG1        0.4196
     45 C           2.5149    6.5055    4.2506 C.ar    1  LIG1       -0.0598
     46 C           7.8173    3.6301    1.0469 C.3     1  LIG1        0.0835
     47 H           2.3572   -2.9016   -1.5055 H       1  LIG1        0.1510
     48 H1          2.8872    2.7089   -1.9715 H       1  LIG1        0.2002
     49 H2          2.1499    1.2054   -2.2125 H       1  LIG1        0.2002
     50 H3          3.1210    1.4104   -0.9367 H       1  LIG1        0.2002
     51 H           4.0864   -3.6098   -1.0674 H       1  LIG1        0.0498
     52 H           3.0638   -3.8457    2.0046 H       1  LIG1        0.0498
     53 H           5.9698   -5.0547   -1.1519 H       1  LIG1        0.0283
     54 H           5.0843   -6.4165   -0.4762 H       1  LIG1        0.0283
     55 H           4.5095   -6.5024    1.8532 H       1  LIG1        0.0283
     56 H           4.7916   -5.1395    2.9233 H       1  LIG1        0.0283
     57 H           5.6889   -3.8121    1.0185 H       1  LIG1        0.0266
     58 H           6.5504   -5.3380    1.2090 H       1  LIG1        0.0266
     59 HA          0.2453   -2.2851   -2.4151 H       1  LIG1        0.0595
     60 H          -0.9176   -2.4106    0.3957 H       1  LIG1        0.0293
     61 H          -1.1914   -3.5698   -0.9035 H       1  LIG1        0.0293
     62 H           3.1573   -6.3882   -2.0079 H       1  LIG1        0.0248
     63 H           4.2413   -5.3187   -2.9167 H       1  LIG1        0.0248
     64 H           2.5636   -4.8582   -2.6472 H       1  LIG1        0.0248
     65 H           1.9317   -6.6806    1.8504 H       1  LIG1        0.0248
     66 H           1.1774   -5.2462    2.5703 H       1  LIG1        0.0248
     67 H           2.5334   -5.9854    3.3696 H       1  LIG1        0.0248
     68 H          -2.1246   -0.3597    0.5555 H       1  LIG1        0.0235
     69 H          -3.3070    0.1336   -0.6599 H       1  LIG1        0.0235
     70 H          -1.5990    0.3702   -0.9733 H       1  LIG1        0.0235
     71 H          -2.2866   -2.5700   -3.1681 H       1  LIG1        0.0235
     72 H          -1.5482   -0.9607   -3.0886 H       1  LIG1        0.0235
     73 H          -3.2967   -1.1298   -2.9818 H       1  LIG1        0.0235
     74 H          -3.5402   -3.4974   -1.1220 H       1  LIG1        0.0235
     75 H          -4.4243   -1.9817   -0.9197 H       1  LIG1        0.0235
     76 H          -3.4730   -2.6340    0.4232 H       1  LIG1        0.0235
     77 HA          1.8138   -1.9548    0.9458 H       1  LIG1        0.0567
     78 H           2.2916    0.4869    2.6821 H       1  LIG1        0.0287
     79 H           2.9222   -1.1170    2.9569 H       1  LIG1        0.0287
     80 HA          0.3652    2.2233   -1.3744 H       1  LIG1        0.0952
     81 H           0.5504   -2.0362    3.0126 H       1  LIG1        0.0266
     82 H          -0.0438   -0.3909    2.8876 H       1  LIG1        0.0266
     83 H           0.3209    3.9074    0.3106 H       1  LIG1        0.0374
     84 H           1.3935    4.3624   -0.9921 H       1  LIG1        0.0374
     85 H          -0.0948   -0.7675    5.1880 H       1  LIG1        0.0263
     86 H           1.3975    0.1464    4.9909 H       1  LIG1        0.0263
     87 H           4.2618    2.9915    0.1780 H       1  LIG1        0.0818
     88 H           1.1608   -2.9014    5.2672 H       1  LIG1        0.0230
     89 H           1.7228   -1.7757    6.5117 H       1  LIG1        0.0230
     90 H           2.6929   -2.0336    5.0546 H       1  LIG1        0.0230
     91 H           0.1441    5.5450    2.0217 H       1  LIG1        0.0624
     92 H           4.5837    5.9120    4.2496 H       1  LIG1        0.0638
     93 H           0.4283    6.9568    4.0236 H       1  LIG1        0.0618
     94 H           2.6262    7.1237    5.1386 H       1  LIG1        0.0618
     95 H           8.1903    2.8113    0.4250 H       1  LIG1        0.0661
     96 H           8.2301    3.5142    2.0541 H       1  LIG1        0.0661
     97 H           8.1436    4.5770    0.6050 H       1  LIG1        0.0661
@<TRIPOS>BOND
     1     1    21    2
     2     2    24    2
     3     3    30    2
     4     4    34   ar
     5     5    34   ar
     6     6    44    1
     7     6    46    1
     8     7    44    2
     9     8    13    1
    10     8    14    1
    11     9    21   am
    12    10    24   am
    13    10    30   am
    14    12    39   ar
    15    12    38   ar
    16    12    44   am
    17    13    15    1
    18    13    22    1
    19    14    16    1
    20    14    23    1
    21    15    17    1
    22    16    17    1
    23    18     9    1
    24    18    24    1
    25    18    20    1
    26    19    20    1
    27    19    27    1
    28    19    26    1
    29    19    25    1
    30    21     8   am
    31    28    34    1
    32    28    29    1
    33    28    10    1
    34    29    32    1
    35    31    33    1
    36    31    11    1
    37    31    30    1
    38    32    36    1
    39    33    35    1
    40    35    38   ar
    41    35    37   ar
    42    36    40    1
    43    37    39   ar
    44    37    41   ar
    45    39    42   ar
    46    41    43   ar
    47    42    45   ar
    48    43    45   ar
    49     9    47    1
    50    11    48    1
    51    11    49    1
    52    11    50    1
    53    13    51    1
    54    14    52    1
    55    15    53    1
    56    15    54    1
    57    16    55    1
    58    16    56    1
    59    17    57    1
    60    17    58    1
    61    18    59    1
    62    20    60    1
    63    20    61    1
    64    22    62    1
    65    22    63    1
    66    22    64    1
    67    23    65    1
    68    23    66    1
    69    23    67    1
    70    25    68    1
    71    25    69    1
    72    25    70    1
    73    26    71    1
    74    26    72    1
    75    26    73    1
    76    27    74    1
    77    27    75    1
    78    27    76    1
    79    28    77    1
    80    29    78    1
    81    29    79    1
    82    31    80    1
    83    32    81    1
    84    32    82    1
    85    33    83    1
    86    33    84    1
    87    36    85    1
    88    36    86    1
    89    38    87    1
    90    40    88    1
    91    40    89    1
    92    40    90    1
    93    41    91    1
    94    42    92    1
    95    43    93    1
    96    45    94    1
    97    46    95    1
    98    46    96    1
    99    46    97    1
@<TRIPOS>MOLECULE
23693553
 97 99 0 0 0
SMALL
GASTEIGER

@<TRIPOS>ATOM
      1 O           0.3959   -4.5022    0.4139 O.2     1  LIG1       -0.2526
      2 O           0.2776    0.0579   -1.9823 O.2     1  LIG1       -0.2731
      3 O           0.3725    1.2034    1.5353 O.2     1  LIG1       -0.2689
      4 O           3.9672    0.4077    0.6380 O.co2   1  LIG1       -0.5479
      5 OXT         3.7438   -1.2048   -0.9512 O.co2   1  LIG1       -0.5479
      6 O          -2.3937    6.3880    3.6118 O.3     1  LIG1       -0.4515
      7 O          -3.1698    6.3206    1.4355 O.2     1  LIG1       -0.2227
      8 N           2.5726   -4.9515   -0.1345 N.am    1  LIG1       -0.2801
      9 N           1.3534   -3.2504   -1.2314 N.am    1  LIG1       -0.2879
     10 N           1.0753   -0.4048    0.0983 N.am    1  LIG1       -0.2273
     11 N           2.9268    2.4398   -0.1559 N.4     1  LIG1        0.2276
     12 N          -1.1637    5.3508    1.9806 N.ar    1  LIG1       -0.2526
     13 C           3.7862   -4.7361   -0.9568 C.3     1  LIG1        0.0249
     14 C           2.5824   -5.9428    0.9677 C.3     1  LIG1        0.0249
     15 C           5.0789   -5.3306   -0.3798 C.3     1  LIG1       -0.0344
     16 C           3.9585   -6.3074    1.5500 C.3     1  LIG1       -0.0344
     17 C           5.0521   -5.3457    1.1348 C.3     1  LIG1       -0.0497
     18 CA          0.2572   -2.2818   -1.4558 C.3     1  LIG1        0.1019
     19 C          -2.4069   -1.8749   -1.2325 C.3     1  LIG1       -0.0356
     20 C          -1.1141   -2.6584   -0.8377 C.3     1  LIG1       -0.0210
     21 C           1.3704   -4.2528   -0.2926 C.2     1  LIG1        0.3033
     22 C           3.6002   -5.2280   -2.3943 C.3     1  LIG1       -0.0464
     23 C           1.8229   -7.2187    0.5851 C.3     1  LIG1       -0.0464
     24 C           0.6100   -0.7982   -1.1478 C.2     1  LIG1        0.2429
     25 C          -2.5180   -0.5192   -0.5097 C.3     1  LIG1       -0.0600
     26 C          -2.5254   -1.6719   -2.7497 C.3     1  LIG1       -0.0600
     27 C          -3.6150   -2.7244   -0.7693 C.3     1  LIG1       -0.0600
     28 CA          2.1533   -1.1345    0.8116 C.3     1  LIG1        0.0730
     29 C           2.1250   -0.9922    2.3431 C.3     1  LIG1       -0.0286
     30 C           0.9287    0.9270    0.4672 C.2     1  LIG1        0.2708
     31 CA          1.5122    2.0317   -0.4619 C.3     1  LIG1        0.0579
     32 C           2.8894   -2.1466    3.0077 C.3     1  LIG1       -0.0513
     33 C           0.6235    3.2769   -0.5242 C.3     1  LIG1        0.0261
     34 C           3.4873   -0.6736    0.1635 C.2     1  LIG1        0.0626
     35 C           0.2079    4.0275    0.7233 C.ar    1  LIG1       -0.0158
     36 C           2.9455   -2.0377    4.5306 C.3     1  LIG1       -0.0558
     37 C           0.7665    4.1576    2.0446 C.ar    1  LIG1        0.0038
     38 C          -0.9367    4.8029    0.7306 C.ar    1  LIG1        0.0202
     39 C          -0.0602    5.0338    2.7777 C.ar    1  LIG1        0.0598
     40 C           3.9405   -0.9921    5.0080 C.3     1  LIG1       -0.0653
     41 C           1.8824    3.6070    2.7254 C.ar    1  LIG1       -0.0523
     42 C           0.2692    5.4223    4.0955 C.ar    1  LIG1       -0.0371
     43 C           2.2005    3.9873    4.0328 C.ar    1  LIG1       -0.0611
     44 C          -2.3383    6.0730    2.2972 C.2     1  LIG1        0.4196
     45 C           1.4096    4.8997    4.7034 C.ar    1  LIG1       -0.0598
     46 C          -3.5802    7.0602    4.0389 C.3     1  LIG1        0.0835
     47 H           2.2561   -2.9159   -1.5516 H       1  LIG1        0.1510
     48 H1          3.5000    2.4932   -1.0028 H       1  LIG1        0.2002
     49 H2          3.4215    1.6690    0.3720 H       1  LIG1        0.2002
     50 H3          3.0301    3.2952    0.3889 H       1  LIG1        0.2002
     51 H           3.9506   -3.6579   -0.9856 H       1  LIG1        0.0498
     52 H           2.0273   -5.4835    1.7976 H       1  LIG1        0.0498
     53 H           5.9388   -4.7500   -0.7344 H       1  LIG1        0.0283
     54 H           5.2284   -6.3545   -0.7474 H       1  LIG1        0.0283
     55 H           4.2458   -7.3201    1.2369 H       1  LIG1        0.0283
     56 H           3.8939   -6.3473    2.6447 H       1  LIG1        0.0283
     57 H           4.8703   -4.3436    1.5376 H       1  LIG1        0.0266
     58 H           6.0162   -5.6889    1.5264 H       1  LIG1        0.0266
     59 HA          0.1510   -2.3204   -2.5478 H       1  LIG1        0.0595
     60 H          -1.0323   -2.6186    0.2565 H       1  LIG1        0.0293
     61 H          -1.2970   -3.7081   -1.1059 H       1  LIG1        0.0293
     62 H           3.4053   -6.3056   -2.4179 H       1  LIG1        0.0248
     63 H           4.5006   -5.0303   -2.9878 H       1  LIG1        0.0248
     64 H           2.7639   -4.7340   -2.8948 H       1  LIG1        0.0248
     65 H           2.3043   -7.7250   -0.2582 H       1  LIG1        0.0248
     66 H           0.7890   -7.0062    0.2927 H       1  LIG1        0.0248
     67 H           1.7870   -7.9147    1.4307 H       1  LIG1        0.0248
     68 H          -2.2999   -0.6196    0.5596 H       1  LIG1        0.0235
     69 H          -3.5310   -0.1086   -0.5992 H       1  LIG1        0.0235
     70 H          -1.8503    0.2377   -0.9215 H       1  LIG1        0.0235
     71 H          -2.4507   -2.6265   -3.2819 H       1  LIG1        0.0235
     72 H          -1.7473   -1.0096   -3.1387 H       1  LIG1        0.0235
     73 H          -3.4892   -1.2203   -3.0113 H       1  LIG1        0.0235
     74 H          -3.6317   -3.6993   -1.2696 H       1  LIG1        0.0235
     75 H          -4.5646   -2.2245   -0.9946 H       1  LIG1        0.0235
     76 H          -3.5806   -2.9018    0.3116 H       1  LIG1        0.0235
     77 HA          2.0527   -2.1878    0.6196 H       1  LIG1        0.0567
     78 H           1.0869   -1.0268    2.6964 H       1  LIG1        0.0287
     79 H           2.5405   -0.0302    2.6598 H       1  LIG1        0.0287
     80 HA          1.6145    1.6546   -1.4793 H       1  LIG1        0.0952
     81 H           3.9057   -2.2162    2.6021 H       1  LIG1        0.0266
     82 H           2.3839   -3.0872    2.7544 H       1  LIG1        0.0266
     83 H          -0.3036    2.9701   -1.0314 H       1  LIG1        0.0374
     84 H           1.0948    4.0098   -1.1948 H       1  LIG1        0.0374
     85 H           3.2453   -3.0103    4.9384 H       1  LIG1        0.0263
     86 H           1.9504   -1.8168    4.9336 H       1  LIG1        0.0263
     87 H          -1.6657    4.9735   -0.0543 H       1  LIG1        0.0818
     88 H           4.9429   -1.2033    4.6217 H       1  LIG1        0.0230
     89 H           3.9939   -0.9966    6.1018 H       1  LIG1        0.0230
     90 H           3.6529    0.0135    4.6898 H       1  LIG1        0.0230
     91 H           2.4961    2.8278    2.2942 H       1  LIG1        0.0624
     92 H          -0.3490    6.1106    4.6627 H       1  LIG1        0.0638
     93 H           3.0595    3.5437    4.5306 H       1  LIG1        0.0618
     94 H           1.6561    5.1864    5.7229 H       1  LIG1        0.0618
     95 H          -3.8286    6.6995    5.0415 H       1  LIG1        0.0661
     96 H          -4.4397    6.8723    3.3880 H       1  LIG1        0.0661
     97 H          -3.3786    8.1330    4.0945 H       1  LIG1        0.0661
@<TRIPOS>BOND
     1     1    21    2
     2     2    24    2
     3     3    30    2
     4     4    34   ar
     5     5    34   ar
     6     6    44    1
     7     6    46    1
     8     7    44    2
     9     8    13    1
    10     8    14    1
    11     9    21   am
    12    10    24   am
    13    10    30   am
    14    12    39   ar
    15    12    38   ar
    16    12    44   am
    17    13    15    1
    18    13    22    1
    19    14    16    1
    20    14    23    1
    21    15    17    1
    22    16    17    1
    23    18     9    1
    24    18    24    1
    25    18    20    1
    26    19    20    1
    27    19    27    1
    28    19    26    1
    29    19    25    1
    30    21     8   am
    31    28    34    1
    32    28    29    1
    33    28    10    1
    34    29    32    1
    35    31    33    1
    36    31    11    1
    37    31    30    1
    38    32    36    1
    39    33    35    1
    40    35    38   ar
    41    35    37   ar
    42    36    40    1
    43    37    39   ar
    44    37    41   ar
    45    39    42   ar
    46    41    43   ar
    47    42    45   ar
    48    43    45   ar
    49     9    47    1
    50    11    48    1
    51    11    49    1
    52    11    50    1
    53    13    51    1
    54    14    52    1
    55    15    53    1
    56    15    54    1
    57    16    55    1
    58    16    56    1
    59    17    57    1
    60    17    58    1
    61    18    59    1
    62    20    60    1
    63    20    61    1
    64    22    62    1
    65    22    63    1
    66    22    64    1
    67    23    65    1
    68    23    66    1
    69    23    67    1
    70    25    68    1
    71    25    69    1
    72    25    70    1
    73    26    71    1
    74    26    72    1
    75    26    73    1
    76    27    74    1
    77    27    75    1
    78    27    76    1
    79    28    77    1
    80    29    78    1
    81    29    79    1
    82    31    80    1
    83    32    81    1
    84    32    82    1
    85    33    83    1
    86    33    84    1
    87    36    85    1
    88    36    86    1
    89    38    87    1
    90    40    88    1
    91    40    89    1
    92    40    90    1
    93    41    91    1
    94    42    92    1
    95    43    93    1
    96    45    94    1
    97    46    95    1
    98    46    96    1
    99    46    97    1
@<TRIPOS>MOLECULE
23693553
 97 99 0 0 0
SMALL
GASTEIGER

@<TRIPOS>ATOM
      1 O           3.6236    0.1233   -1.9478 O.2     1  LIG1       -0.2526
      2 O          -0.0915   -1.4368   -1.0344 O.2     1  LIG1       -0.2731
      3 O           0.6931    2.0377    0.1242 O.2     1  LIG1       -0.2689
      4 O           1.2922   -3.6443    0.6862 O.co2   1  LIG1       -0.5479
      5 OXT        -0.0167   -2.3144    2.0344 O.co2   1  LIG1       -0.5479
      6 O          -4.4485   -0.2332    1.6922 O.3     1  LIG1       -0.4515
      7 O          -5.2270    1.9056    1.2823 O.2     1  LIG1       -0.2227
      8 N           3.9691    2.3678   -1.5621 N.am    1  LIG1       -0.2801
      9 N           1.8459    1.5150   -2.0608 N.am    1  LIG1       -0.2879
     10 N           1.3267   -0.1758    0.2305 N.am    1  LIG1       -0.2273
     11 N           2.8399    1.0143    2.7298 N.4     1  LIG1        0.2276
     12 N          -3.1012    1.5488    2.1037 N.ar    1  LIG1       -0.2526
     13 C           3.4776    3.7689   -1.5658 C.3     1  LIG1        0.0249
     14 C           5.3887    2.0637   -1.2744 C.3     1  LIG1        0.0249
     15 C           4.4102    4.7834   -0.8885 C.3     1  LIG1       -0.0344
     16 C           6.1566    3.1327   -0.4801 C.3     1  LIG1       -0.0344
     17 C           5.2426    4.1336    0.1983 C.3     1  LIG1       -0.0497
     18 CA          0.8422    0.4455   -2.2175 C.3     1  LIG1        0.1019
     19 C          -0.1525   -1.0876   -4.2171 C.3     1  LIG1       -0.0356
     20 C           1.0298   -0.2863   -3.5715 C.3     1  LIG1       -0.0210
     21 C           3.1737    1.2656   -1.8949 C.2     1  LIG1        0.3033
     22 C           3.1198    4.2642   -2.9705 C.3     1  LIG1       -0.0464
     23 C           6.1747    1.6865   -2.5363 C.3     1  LIG1       -0.0464
     24 C           0.7026   -0.5001   -0.9820 C.2     1  LIG1        0.2429
     25 C          -1.5335   -0.4880   -3.9124 C.3     1  LIG1       -0.0600
     26 C           0.0439   -1.0588   -5.7529 C.3     1  LIG1       -0.0600
     27 C          -0.1306   -2.5753   -3.8105 C.3     1  LIG1       -0.0600
     28 CA          1.8459   -1.3424    1.0060 C.3     1  LIG1        0.0730
     29 C           3.3185   -1.6314    0.6578 C.3     1  LIG1       -0.0286
     30 C           1.1097    1.0740    0.7845 C.2     1  LIG1        0.2708
     31 CA          1.4525    1.3929    2.2600 C.3     1  LIG1        0.0579
     32 C           4.0076   -2.4704    1.7486 C.3     1  LIG1       -0.0513
     33 C           0.3747    0.9596    3.2610 C.3     1  LIG1        0.0261
     34 C           0.9114   -2.5640    1.1997 C.2     1  LIG1        0.0626
     35 C          -0.9727    1.4923    2.8861 C.ar    1  LIG1       -0.0158
     36 C           5.5220   -2.2660    1.7820 C.3     1  LIG1       -0.0558
     37 C          -1.3796    2.8561    2.7912 C.ar    1  LIG1        0.0038
     38 C          -2.0431    0.7311    2.4729 C.ar    1  LIG1        0.0202
     39 C          -2.6768    2.8754    2.2627 C.ar    1  LIG1        0.0598
     40 C           6.1595   -3.1099    2.8774 C.3     1  LIG1       -0.0653
     41 C          -0.7381    4.0852    3.0677 C.ar    1  LIG1       -0.0523
     42 C          -3.3294    4.0928    1.9857 C.ar    1  LIG1       -0.0371
     43 C          -1.3839    5.2918    2.7865 C.ar    1  LIG1       -0.0611
     44 C          -4.3663    1.1201    1.6426 C.2     1  LIG1        0.4196
     45 C          -2.6623    5.2918    2.2470 C.ar    1  LIG1       -0.0598
     46 C          -5.6944   -0.7801    1.2615 C.3     1  LIG1        0.0835
     47 H           1.4682    2.2900   -1.5335 H       1  LIG1        0.1510
     48 H1          3.1644    1.6488    3.4671 H       1  LIG1        0.2002
     49 H2          3.5078    1.0573    1.9479 H       1  LIG1        0.2002
     50 H3          2.8788    0.0653    3.1254 H       1  LIG1        0.2002
     51 H           2.5609    3.7732   -0.9653 H       1  LIG1        0.0498
     52 H           5.3731    1.1705   -0.6337 H       1  LIG1        0.0498
     53 H           3.8154    5.6036   -0.4678 H       1  LIG1        0.0283
     54 H           5.0797    5.2417   -1.6285 H       1  LIG1        0.0283
     55 H           6.8401    3.6786   -1.1445 H       1  LIG1        0.0283
     56 H           6.7969    2.6459    0.2655 H       1  LIG1        0.0283
     57 H           4.6067    3.6447    0.9455 H       1  LIG1        0.0266
     58 H           5.8405    4.8907    0.7172 H       1  LIG1        0.0266
     59 HA         -0.1029    1.0016   -2.2599 H       1  LIG1        0.0595
     60 H           1.9046   -0.9440   -3.5099 H       1  LIG1        0.0293
     61 H           1.3131    0.4953   -4.2932 H       1  LIG1        0.0293
     62 H           3.9938    4.2453   -3.6288 H       1  LIG1        0.0248
     63 H           2.7430    5.2926   -2.9295 H       1  LIG1        0.0248
     64 H           2.3428    3.6533   -3.4379 H       1  LIG1        0.0248
     65 H           6.1981    2.5164   -3.2487 H       1  LIG1        0.0248
     66 H           5.7377    0.8246   -3.0497 H       1  LIG1        0.0248
     67 H           7.2061    1.4208   -2.2790 H       1  LIG1        0.0248
     68 H          -1.7784   -0.5394   -2.8473 H       1  LIG1        0.0235
     69 H          -2.3235   -1.0300   -4.4460 H       1  LIG1        0.0235
     70 H          -1.5868    0.5611   -4.2234 H       1  LIG1        0.0235
     71 H           1.0168   -1.4778   -6.0337 H       1  LIG1        0.0235
     72 H          -0.0098   -0.0359   -6.1421 H       1  LIG1        0.0235
     73 H          -0.7301   -1.6431   -6.2649 H       1  LIG1        0.0235
     74 H           0.8784   -2.9949   -3.8872 H       1  LIG1        0.0235
     75 H          -0.7819   -3.1708   -4.4616 H       1  LIG1        0.0235
     76 H          -0.4913   -2.7470   -2.7972 H       1  LIG1        0.0235
     77 HA          1.8765   -1.0154    2.0371 H       1  LIG1        0.0567
     78 H           3.8525   -0.6781    0.5636 H       1  LIG1        0.0287
     79 H           3.4031   -2.1337   -0.3124 H       1  LIG1        0.0287
     80 HA          1.5188    2.4881    2.2838 H       1  LIG1        0.0952
     81 H           3.7855   -3.5312    1.5876 H       1  LIG1        0.0266
     82 H           3.6069   -2.2095    2.7359 H       1  LIG1        0.0266
     83 H           0.6311    1.3301    4.2617 H       1  LIG1        0.0374
     84 H           0.3314   -0.1296    3.3445 H       1  LIG1        0.0374
     85 H           5.7492   -1.2101    1.9727 H       1  LIG1        0.0263
     86 H           5.9622   -2.5269    0.8137 H       1  LIG1        0.0263
     87 H          -2.1314   -0.3491    2.3747 H       1  LIG1        0.0818
     88 H           5.7389   -2.8638    3.8585 H       1  LIG1        0.0230
     89 H           7.2385   -2.9325    2.9188 H       1  LIG1        0.0230
     90 H           5.9957   -4.1767    2.6946 H       1  LIG1        0.0230
     91 H           0.2584    4.1120    3.4945 H       1  LIG1        0.0624
     92 H          -4.3329    4.1177    1.5670 H       1  LIG1        0.0638
     93 H          -0.8836    6.2355    2.9884 H       1  LIG1        0.0618
     94 H          -3.1568    6.2360    2.0265 H       1  LIG1        0.0618
     95 H          -5.8209   -1.7522    1.7462 H       1  LIG1        0.0661
     96 H          -5.6702   -0.9285    0.1784 H       1  LIG1        0.0661
     97 H          -6.5445   -0.1493    1.5413 H       1  LIG1        0.0661
@<TRIPOS>BOND
     1     1    21    2
     2     2    24    2
     3     3    30    2
     4     4    34   ar
     5     5    34   ar
     6     6    44    1
     7     6    46    1
     8     7    44    2
     9     8    13    1
    10     8    14    1
    11     9    21   am
    12    10    24   am
    13    10    30   am
    14    12    39   ar
    15    12    38   ar
    16    12    44   am
    17    13    15    1
    18    13    22    1
    19    14    16    1
    20    14    23    1
    21    15    17    1
    22    16    17    1
    23    18     9    1
    24    18    24    1
    25    18    20    1
    26    19    20    1
    27    19    27    1
    28    19    26    1
    29    19    25    1
    30    21     8   am
    31    28    34    1
    32    28    29    1
    33    28    10    1
    34    29    32    1
    35    31    33    1
    36    31    11    1
    37    31    30    1
    38    32    36    1
    39    33    35    1
    40    35    38   ar
    41    35    37   ar
    42    36    40    1
    43    37    39   ar
    44    37    41   ar
    45    39    42   ar
    46    41    43   ar
    47    42    45   ar
    48    43    45   ar
    49     9    47    1
    50    11    48    1
    51    11    49    1
    52    11    50    1
    53    13    51    1
    54    14    52    1
    55    15    53    1
    56    15    54    1
    57    16    55    1
    58    16    56    1
    59    17    57    1
    60    17    58    1
    61    18    59    1
    62    20    60    1
    63    20    61    1
    64    22    62    1
    65    22    63    1
    66    22    64    1
    67    23    65    1
    68    23    66    1
    69    23    67    1
    70    25    68    1
    71    25    69    1
    72    25    70    1
    73    26    71    1
    74    26    72    1
    75    26    73    1
    76    27    74    1
    77    27    75    1
    78    27    76    1
    79    28    77    1
    80    29    78    1
    81    29    79    1
    82    31    80    1
    83    32    81    1
    84    32    82    1
    85    33    83    1
    86    33    84    1
    87    36    85    1
    88    36    86    1
    89    38    87    1
    90    40    88    1
    91    40    89    1
    92    40    90    1
    93    41    91    1
    94    42    92    1
    95    43    93    1
    96    45    94    1
    97    46    95    1
    98    46    96    1
    99    46    97    1
@<TRIPOS>MOLECULE
23693553
 97 99 0 0 0
SMALL
GASTEIGER

@<TRIPOS>ATOM
      1 O           0.4527   -4.3368    0.4889 O.2     1  LIG1       -0.2526
      2 O           0.4036    0.2724   -1.8360 O.2     1  LIG1       -0.2731
      3 O           3.2456    1.2794    0.6720 O.2     1  LIG1       -0.2689
      4 O           4.5080   -1.7787    1.1907 O.co2   1  LIG1       -0.5479
      5 OXT         3.6143   -1.4048   -0.8825 O.co2   1  LIG1       -0.5479
      6 O          -2.4190    6.2867    3.6199 O.3     1  LIG1       -0.4515
      7 O          -3.2789    6.0971    1.4812 O.2     1  LIG1       -0.2227
      8 N           2.5839   -4.9077   -0.1155 N.am    1  LIG1       -0.2801
      9 N           1.4465   -3.1101   -1.1508 N.am    1  LIG1       -0.2879
     10 N           1.4888   -0.1599    0.1205 N.am    1  LIG1       -0.2273
     11 N           2.7083    3.3805   -0.6026 N.4     1  LIG1        0.2276
     12 N          -1.2961    5.0861    2.0232 N.ar    1  LIG1       -0.2526
     13 C           3.7728   -4.7972   -0.9938 C.3     1  LIG1        0.0249
     14 C           2.5789   -5.8748    1.0062 C.3     1  LIG1        0.0249
     15 C           5.0582   -5.4301   -0.4416 C.3     1  LIG1       -0.0344
     16 C           3.9519   -6.3139    1.5406 C.3     1  LIG1       -0.0344
     17 C           5.0804   -5.4204    1.0733 C.3     1  LIG1       -0.0497
     18 CA          0.3960   -2.0742   -1.3307 C.3     1  LIG1        0.1019
     19 C          -2.2906   -1.6962   -1.1793 C.3     1  LIG1       -0.0356
     20 C          -0.9898   -2.4335   -0.7323 C.3     1  LIG1       -0.0210
     21 C           1.4288   -4.1322   -0.2328 C.2     1  LIG1        0.3033
     22 C           3.4909   -5.3352   -2.3982 C.3     1  LIG1       -0.0464
     23 C           1.7298   -7.1106    0.6822 C.3     1  LIG1       -0.0464
     24 C           0.8318   -0.5859   -1.0438 C.2     1  LIG1        0.2429
     25 C          -2.4552   -0.3384   -0.4809 C.3     1  LIG1       -0.0600
     26 C          -2.3711   -1.5146   -2.7016 C.3     1  LIG1       -0.0600
     27 C          -3.4912   -2.5722   -0.7415 C.3     1  LIG1       -0.0600
     28 CA          2.1689   -1.1559    0.9923 C.3     1  LIG1        0.0730
     29 C           2.2030   -0.8101    2.4940 C.3     1  LIG1       -0.0286
     30 C           2.1608    1.0665    0.1010 C.2     1  LIG1        0.2708
     31 CA          1.6791    2.2654   -0.7321 C.3     1  LIG1        0.0579
     32 C           0.7994   -0.7179    3.1036 C.3     1  LIG1       -0.0513
     33 C           0.2806    2.7720   -0.3994 C.3     1  LIG1        0.0261
     34 C           3.5891   -1.4915    0.3897 C.2     1  LIG1        0.0626
     35 C          -0.0033    3.6688    0.7828 C.ar    1  LIG1       -0.0158
     36 C           0.8196   -0.5185    4.6220 C.3     1  LIG1       -0.0558
     37 C           0.6192    3.8643    2.0609 C.ar    1  LIG1        0.0038
     38 C          -1.1321    4.4647    0.7983 C.ar    1  LIG1        0.0202
     39 C          -0.1819    4.7601    2.8008 C.ar    1  LIG1        0.0598
     40 C           1.3606   -1.7203    5.3856 C.3     1  LIG1       -0.0653
     41 C           1.7810    3.3663    2.6943 C.ar    1  LIG1       -0.0523
     42 C           0.1819    5.1593    4.1061 C.ar    1  LIG1       -0.0371
     43 C           2.1415    3.7697    3.9821 C.ar    1  LIG1       -0.0611
     44 C          -2.4304    5.8747    2.3302 C.2     1  LIG1        0.4196
     45 C           1.3488    4.6594    4.6801 C.ar    1  LIG1       -0.0598
     46 C          -3.5519    7.0516    4.0390 C.3     1  LIG1        0.0835
     47 H           2.3738   -2.7739   -1.4129 H       1  LIG1        0.1510
     48 H1          2.9318    3.8198   -1.4978 H       1  LIG1        0.2002
     49 H2          3.5666    2.9124   -0.2462 H       1  LIG1        0.2002
     50 H3          2.4548    4.0813    0.1009 H       1  LIG1        0.2002
     51 H           4.0013   -3.7393   -1.0987 H       1  LIG1        0.0498
     52 H           2.0872   -5.3645    1.8468 H       1  LIG1        0.0498
     53 H           5.9287   -4.8879   -0.8312 H       1  LIG1        0.0283
     54 H           5.1597   -6.4643   -0.7958 H       1  LIG1        0.0283
     55 H           4.1695   -7.3441    1.2281 H       1  LIG1        0.0283
     56 H           3.9262   -6.3397    2.6372 H       1  LIG1        0.0283
     57 H           4.9638   -4.4062    1.4680 H       1  LIG1        0.0266
     58 H           6.0376   -5.8063    1.4403 H       1  LIG1        0.0266
     59 HA          0.2838   -2.0955   -2.4236 H       1  LIG1        0.0595
     60 H          -0.9293   -2.3701    0.3619 H       1  LIG1        0.0293
     61 H          -1.1627   -3.4899   -0.9817 H       1  LIG1        0.0293
     62 H           3.2369   -6.3998   -2.3683 H       1  LIG1        0.0248
     63 H           4.3693   -5.2100   -3.0411 H       1  LIG1        0.0248
     64 H           2.6574   -4.8099   -2.8736 H       1  LIG1        0.0248
     65 H           2.1491   -7.6637   -0.1646 H       1  LIG1        0.0248
     66 H           0.7010   -6.8439    0.4219 H       1  LIG1        0.0248
     67 H           1.6851   -7.7839    1.5455 H       1  LIG1        0.0248
     68 H          -2.2416   -0.4091    0.5913 H       1  LIG1        0.0235
     69 H          -3.4791    0.0401   -0.5870 H       1  LIG1        0.0235
     70 H          -1.8062    0.4209   -0.9117 H       1  LIG1        0.0235
     71 H          -2.2560   -2.4726   -3.2203 H       1  LIG1        0.0235
     72 H          -1.6006   -0.8344   -3.0748 H       1  LIG1        0.0235
     73 H          -3.3396   -1.0929   -2.9956 H       1  LIG1        0.0235
     74 H          -3.4713   -3.5506   -1.2350 H       1  LIG1        0.0235
     75 H          -4.4463   -2.0981   -0.9964 H       1  LIG1        0.0235
     76 H          -3.4821   -2.7418    0.3412 H       1  LIG1        0.0235
     77 HA          1.5825   -2.0663    0.9647 H       1  LIG1        0.0567
     78 H           2.7501    0.1157    2.6934 H       1  LIG1        0.0287
     79 H           2.7583   -1.6035    3.0074 H       1  LIG1        0.0287
     80 HA          1.7676    1.9953   -1.7876 H       1  LIG1        0.0952
     81 H           0.2277   -1.6241    2.8674 H       1  LIG1        0.0266
     82 H           0.2624    0.1232    2.6496 H       1  LIG1        0.0266
     83 H          -0.4024    1.9273   -0.2846 H       1  LIG1        0.0374
     84 H          -0.0646    3.3149   -1.2927 H       1  LIG1        0.0374
     85 H          -0.2060   -0.3293    4.9602 H       1  LIG1        0.0263
     86 H           1.4082    0.3705    4.8756 H       1  LIG1        0.0263
     87 H          -1.9018    4.5931    0.0433 H       1  LIG1        0.0818
     88 H           0.8206   -2.6340    5.1174 H       1  LIG1        0.0230
     89 H           1.2466   -1.5641    6.4631 H       1  LIG1        0.0230
     90 H           2.4250   -1.8786    5.1894 H       1  LIG1        0.0230
     91 H           2.4336    2.6471    2.2241 H       1  LIG1        0.0624
     92 H          -0.4275    5.8424    4.6911 H       1  LIG1        0.0638
     93 H           3.0422    3.3668    4.4419 H       1  LIG1        0.0618
     94 H           1.6256    4.9580    5.6887 H       1  LIG1        0.0618
     95 H          -3.8258    6.7220    5.0453 H       1  LIG1        0.0661
     96 H          -4.4243    6.9291    3.3897 H       1  LIG1        0.0661
     97 H          -3.2664    8.1058    4.0829 H       1  LIG1        0.0661
@<TRIPOS>BOND
     1     1    21    2
     2     2    24    2
     3     3    30    2
     4     4    34   ar
     5     5    34   ar
     6     6    44    1
     7     6    46    1
     8     7    44    2
     9     8    13    1
    10     8    14    1
    11     9    21   am
    12    10    24   am
    13    10    30   am
    14    12    39   ar
    15    12    38   ar
    16    12    44   am
    17    13    15    1
    18    13    22    1
    19    14    16    1
    20    14    23    1
    21    15    17    1
    22    16    17    1
    23    18     9    1
    24    18    24    1
    25    18    20    1
    26    19    20    1
    27    19    27    1
    28    19    26    1
    29    19    25    1
    30    21     8   am
    31    28    34    1
    32    28    29    1
    33    28    10    1
    34    29    32    1
    35    31    33    1
    36    31    11    1
    37    31    30    1
    38    32    36    1
    39    33    35    1
    40    35    38   ar
    41    35    37   ar
    42    36    40    1
    43    37    39   ar
    44    37    41   ar
    45    39    42   ar
    46    41    43   ar
    47    42    45   ar
    48    43    45   ar
    49     9    47    1
    50    11    48    1
    51    11    49    1
    52    11    50    1
    53    13    51    1
    54    14    52    1
    55    15    53    1
    56    15    54    1
    57    16    55    1
    58    16    56    1
    59    17    57    1
    60    17    58    1
    61    18    59    1
    62    20    60    1
    63    20    61    1
    64    22    62    1
    65    22    63    1
    66    22    64    1
    67    23    65    1
    68    23    66    1
    69    23    67    1
    70    25    68    1
    71    25    69    1
    72    25    70    1
    73    26    71    1
    74    26    72    1
    75    26    73    1
    76    27    74    1
    77    27    75    1
    78    27    76    1
    79    28    77    1
    80    29    78    1
    81    29    79    1
    82    31    80    1
    83    32    81    1
    84    32    82    1
    85    33    83    1
    86    33    84    1
    87    36    85    1
    88    36    86    1
    89    38    87    1
    90    40    88    1
    91    40    89    1
    92    40    90    1
    93    41    91    1
    94    42    92    1
    95    43    93    1
    96    45    94    1
    97    46    95    1
    98    46    96    1
    99    46    97    1
@<TRIPOS>MOLECULE
23693553
 97 99 0 0 0
SMALL
GASTEIGER

@<TRIPOS>ATOM
      1 O           0.0586   -4.9166   -1.8278 O.2     1  LIG1       -0.2526
      2 O           0.9581    0.1367   -2.2582 O.2     1  LIG1       -0.2731
      3 O           0.4205    1.6553    1.2887 O.2     1  LIG1       -0.2689
      4 O           3.9929   -1.8872    1.2422 O.co2   1  LIG1       -0.5479
      5 OXT         3.5199   -0.4542   -0.4597 O.co2   1  LIG1       -0.5479
      6 O           4.9002    6.5635    4.0459 O.3     1  LIG1       -0.4515
      7 O           3.1369    7.6103    2.9849 O.2     1  LIG1       -0.2227
      8 N           1.6184   -5.3486   -0.1813 N.am    1  LIG1       -0.2801
      9 N           1.1800   -3.1627   -0.9113 N.am    1  LIG1       -0.2879
     10 N           1.0090   -0.1693    0.0258 N.am    1  LIG1       -0.2273
     11 N           2.8774    1.7360   -1.4012 N.4     1  LIG1        0.2276
     12 N           3.6556    5.4304    2.4924 N.ar    1  LIG1       -0.2526
     13 C           2.7141   -4.9025    0.7120 C.3     1  LIG1        0.0249
     14 C           1.2416   -6.7767   -0.2048 C.3     1  LIG1        0.0249
     15 C           2.8664   -5.6964    2.0223 C.3     1  LIG1       -0.0344
     16 C           1.5986   -7.5584    1.0692 C.3     1  LIG1       -0.0344
     17 C           1.7119   -6.6469    2.2761 C.3     1  LIG1       -0.0497
     18 CA          0.3990   -2.1138   -1.5894 C.3     1  LIG1        0.1019
     19 C          -2.1011   -1.4612   -2.2896 C.3     1  LIG1       -0.0356
     20 C          -1.1279   -2.2059   -1.3122 C.3     1  LIG1       -0.0210
     21 C           0.9106   -4.5048   -1.0454 C.2     1  LIG1        0.3033
     22 C           4.0453   -4.8518   -0.0427 C.3     1  LIG1       -0.0464
     23 C           1.8013   -7.4983   -1.4340 C.3     1  LIG1       -0.0464
     24 C           0.8648   -0.6445   -1.2972 C.2     1  LIG1        0.2429
     25 C          -2.3373   -0.0069   -1.8430 C.3     1  LIG1       -0.0600
     26 C          -1.6257   -1.4781   -3.7526 C.3     1  LIG1       -0.0600
     27 C          -3.4693   -2.1805   -2.2413 C.3     1  LIG1       -0.0600
     28 CA          1.7310   -1.0234    1.0129 C.3     1  LIG1        0.0730
     29 C           1.7182   -0.6285    2.5054 C.3     1  LIG1       -0.0286
     30 C           1.0217    1.2041    0.3095 C.2     1  LIG1        0.2708
     31 CA          1.6372    2.1927   -0.7044 C.3     1  LIG1        0.0579
     32 C           0.3665   -0.7080    3.2272 C.3     1  LIG1       -0.0513
     33 C           1.7812    3.6255   -0.1626 C.3     1  LIG1        0.0261
     34 C           3.2388   -1.1425    0.5821 C.2     1  LIG1        0.0626
     35 C           2.7319    4.0132    0.9477 C.ar    1  LIG1       -0.0158
     36 C          -0.3722   -2.0334    3.0511 C.3     1  LIG1       -0.0558
     37 C           3.8040    3.3445    1.6223 C.ar    1  LIG1        0.0038
     38 C           2.6718    5.2668    1.5271 C.ar    1  LIG1        0.0202
     39 C           4.3584    4.2264    2.5681 C.ar    1  LIG1        0.0598
     40 C          -1.6335   -2.0700    3.9005 C.3     1  LIG1       -0.0653
     41 C           4.3787    2.0627    1.5386 C.ar    1  LIG1       -0.0523
     42 C           5.4408    3.8310    3.3910 C.ar    1  LIG1       -0.0371
     43 C           5.4445    1.6658    2.3465 C.ar    1  LIG1       -0.0611
     44 C           3.8484    6.6406    3.1963 C.2     1  LIG1        0.4196
     45 C           5.9722    2.5476    3.2655 C.ar    1  LIG1       -0.0598
     46 C           5.1877    7.7758    4.7398 C.3     1  LIG1        0.0835
     47 H           2.1766   -2.9945   -0.8692 H       1  LIG1        0.1510
     48 H1          2.6459    1.4275   -2.3538 H       1  LIG1        0.2002
     49 H2          3.2302    0.8256   -0.9931 H       1  LIG1        0.2002
     50 H3          3.6734    2.3756   -1.3878 H       1  LIG1        0.2002
     51 H           2.4672   -3.8884    1.0244 H       1  LIG1        0.0498
     52 H           0.1461   -6.8020   -0.2862 H       1  LIG1        0.0498
     53 H           2.9621   -4.9990    2.8642 H       1  LIG1        0.0283
     54 H           3.8018   -6.2719    2.0133 H       1  LIG1        0.0283
     55 H           2.5494   -8.0922    0.9380 H       1  LIG1        0.0283
     56 H           0.8409   -8.3302    1.2507 H       1  LIG1        0.0283
     57 H           0.7797   -6.0948    2.4421 H       1  LIG1        0.0266
     58 H           1.9089   -7.2369    3.1782 H       1  LIG1        0.0266
     59 HA          0.5951   -2.2992   -2.6518 H       1  LIG1        0.0595
     60 H          -1.3287   -1.8749   -0.2850 H       1  LIG1        0.0293
     61 H          -1.4277   -3.2578   -1.3174 H       1  LIG1        0.0293
     62 H           4.3424   -5.8479   -0.3860 H       1  LIG1        0.0248
     63 H           4.8437   -4.4670    0.6006 H       1  LIG1        0.0248
     64 H           3.9842   -4.2071   -0.9247 H       1  LIG1        0.0248
     65 H           2.8958   -7.4879   -1.4353 H       1  LIG1        0.0248
     66 H           1.4672   -7.0299   -2.3644 H       1  LIG1        0.0248
     67 H           1.4712   -8.5427   -1.4503 H       1  LIG1        0.0248
     68 H          -2.6615    0.0376   -0.7973 H       1  LIG1        0.0235
     69 H          -3.1184    0.4674   -2.4489 H       1  LIG1        0.0235
     70 H          -1.4444    0.6121   -1.9428 H       1  LIG1        0.0235
     71 H          -1.4173   -2.4995   -4.0898 H       1  LIG1        0.0235
     72 H          -0.7219   -0.8805   -3.9005 H       1  LIG1        0.0235
     73 H          -2.3885   -1.0597   -4.4201 H       1  LIG1        0.0235
     74 H          -3.3861   -3.2116   -2.6044 H       1  LIG1        0.0235
     75 H          -4.2089   -1.6721   -2.8712 H       1  LIG1        0.0235
     76 H          -3.8648   -2.2127   -1.2205 H       1  LIG1        0.0235
     77 HA          1.2985   -2.0177    0.9746 H       1  LIG1        0.0567
     78 H           2.1421    0.3724    2.6463 H       1  LIG1        0.0287
     79 H           2.3964   -1.2990    3.0508 H       1  LIG1        0.0287
     80 HA          0.8884    2.2904   -1.5017 H       1  LIG1        0.0952
     81 H          -0.2898    0.1061    2.9101 H       1  LIG1        0.0266
     82 H           0.5547   -0.5433    4.2964 H       1  LIG1        0.0266
     83 H           0.7798    3.9490    0.1617 H       1  LIG1        0.0374
     84 H           2.0251    4.2746   -1.0167 H       1  LIG1        0.0374
     85 H           0.2788   -2.8712    3.3248 H       1  LIG1        0.0263
     86 H          -0.6614   -2.1676    2.0044 H       1  LIG1        0.0263
     87 H           1.9990    6.0945    1.3290 H       1  LIG1        0.0818
     88 H          -1.3902   -2.0048    4.9657 H       1  LIG1        0.0230
     89 H          -2.1787   -3.0032    3.7307 H       1  LIG1        0.0230
     90 H          -2.2986   -1.2372    3.6488 H       1  LIG1        0.0230
     91 H           3.9977    1.3290    0.8592 H       1  LIG1        0.0624
     92 H           5.8741    4.4933    4.1328 H       1  LIG1        0.0638
     93 H           5.8410    0.6553    2.2537 H       1  LIG1        0.0618
     94 H           6.7985    2.2370    3.9001 H       1  LIG1        0.0618
     95 H           5.9290    7.5545    5.5139 H       1  LIG1        0.0661
     96 H           4.2934    8.1777    5.2245 H       1  LIG1        0.0661
     97 H           5.6170    8.5072    4.0480 H       1  LIG1        0.0661
@<TRIPOS>BOND
     1     1    21    2
     2     2    24    2
     3     3    30    2
     4     4    34   ar
     5     5    34   ar
     6     6    44    1
     7     6    46    1
     8     7    44    2
     9     8    13    1
    10     8    14    1
    11     9    21   am
    12    10    24   am
    13    10    30   am
    14    12    39   ar
    15    12    38   ar
    16    12    44   am
    17    13    15    1
    18    13    22    1
    19    14    16    1
    20    14    23    1
    21    15    17    1
    22    16    17    1
    23    18     9    1
    24    18    24    1
    25    18    20    1
    26    19    20    1
    27    19    27    1
    28    19    26    1
    29    19    25    1
    30    21     8   am
    31    28    34    1
    32    28    29    1
    33    28    10    1
    34    29    32    1
    35    31    33    1
    36    31    11    1
    37    31    30    1
    38    32    36    1
    39    33    35    1
    40    35    38   ar
    41    35    37   ar
    42    36    40    1
    43    37    39   ar
    44    37    41   ar
    45    39    42   ar
    46    41    43   ar
    47    42    45   ar
    48    43    45   ar
    49     9    47    1
    50    11    48    1
    51    11    49    1
    52    11    50    1
    53    13    51    1
    54    14    52    1
    55    15    53    1
    56    15    54    1
    57    16    55    1
    58    16    56    1
    59    17    57    1
    60    17    58    1
    61    18    59    1
    62    20    60    1
    63    20    61    1
    64    22    62    1
    65    22    63    1
    66    22    64    1
    67    23    65    1
    68    23    66    1
    69    23    67    1
    70    25    68    1
    71    25    69    1
    72    25    70    1
    73    26    71    1
    74    26    72    1
    75    26    73    1
    76    27    74    1
    77    27    75    1
    78    27    76    1
    79    28    77    1
    80    29    78    1
    81    29    79    1
    82    31    80    1
    83    32    81    1
    84    32    82    1
    85    33    83    1
    86    33    84    1
    87    36    85    1
    88    36    86    1
    89    38    87    1
    90    40    88    1
    91    40    89    1
    92    40    90    1
    93    41    91    1
    94    42    92    1
    95    43    93    1
    96    45    94    1
    97    46    95    1
    98    46    96    1
    99    46    97    1
@<TRIPOS>MOLECULE
23693553
 97 99 0 0 0
SMALL
GASTEIGER

@<TRIPOS>ATOM
      1 O           0.3580   -4.4599    0.2314 O.2     1  LIG1       -0.2526
      2 O           0.3125    0.2535   -1.8592 O.2     1  LIG1       -0.2731
      3 O           2.9709    1.2141    0.9098 O.2     1  LIG1       -0.2689
      4 O           4.3885   -1.8008    1.1393 O.co2   1  LIG1       -0.5479
      5 OXT         3.5191   -1.2482   -0.9010 O.co2   1  LIG1       -0.5479
      6 O          -2.4575    6.1609    3.6244 O.3     1  LIG1       -0.4515
      7 O          -3.3008    6.1030    1.4702 O.2     1  LIG1       -0.2227
      8 N           2.5594   -4.9285   -0.1836 N.am    1  LIG1       -0.2801
      9 N           1.4242   -3.1334   -1.2640 N.am    1  LIG1       -0.2879
     10 N           1.3230   -0.2259    0.1285 N.am    1  LIG1       -0.2273
     11 N           2.8469    3.1639   -0.6676 N.4     1  LIG1        0.2276
     12 N          -1.3427    5.0242    1.9876 N.ar    1  LIG1       -0.2526
     13 C           3.8442   -4.6685   -0.8839 C.3     1  LIG1        0.0249
     14 C           2.5384   -5.7283    1.0740 C.3     1  LIG1        0.0249
     15 C           5.0943   -5.3154   -0.2711 C.3     1  LIG1       -0.0344
     16 C           3.8848   -6.2168    1.6265 C.3     1  LIG1       -0.0344
     17 C           5.0374   -5.3224    1.2409 C.3     1  LIG1       -0.0497
     18 CA          0.3508   -2.1082   -1.4370 C.3     1  LIG1        0.1019
     19 C          -2.3357   -1.7087   -1.2110 C.3     1  LIG1       -0.0356
     20 C          -1.0392   -2.5031   -0.8650 C.3     1  LIG1       -0.0210
     21 C           1.3808   -4.1989   -0.3979 C.2     1  LIG1        0.3033
     22 C           3.7755   -5.0463   -2.3673 C.3     1  LIG1       -0.0464
     23 C           1.6071   -6.9522    0.9842 C.3     1  LIG1       -0.0464
     24 C           0.7342   -0.6213   -1.0810 C.2     1  LIG1        0.2429
     25 C          -2.4283   -0.3753   -0.4508 C.3     1  LIG1       -0.0600
     26 C          -2.4883   -1.4721   -2.7198 C.3     1  LIG1       -0.0600
     27 C          -3.5343   -2.5707   -0.7400 C.3     1  LIG1       -0.0600
     28 CA          2.0201   -1.2503    0.9593 C.3     1  LIG1        0.0730
     29 C           2.0955   -1.0074    2.4785 C.3     1  LIG1       -0.0286
     30 C           1.9757    1.0090    0.1915 C.2     1  LIG1        0.2708
     31 CA          1.6795    2.1856   -0.7564 C.3     1  LIG1        0.0579
     32 C           0.7439   -0.7743    3.1517 C.3     1  LIG1       -0.0513
     33 C           0.3617    2.9265   -0.5620 C.3     1  LIG1        0.0261
     34 C           3.4650   -1.4667    0.3582 C.2     1  LIG1        0.0626
     35 C           0.0272    3.7271    0.6842 C.ar    1  LIG1       -0.0158
     36 C           0.9441   -0.6424    4.6649 C.3     1  LIG1       -0.0558
     37 C           0.6544    3.9325    1.9626 C.ar    1  LIG1        0.0038
     38 C          -1.1524    4.4495    0.7408 C.ar    1  LIG1        0.0202
     39 C          -0.2289    4.6879    2.7643 C.ar    1  LIG1        0.0598
     40 C          -0.3588   -0.3912    5.4009 C.3     1  LIG1       -0.0653
     41 C           1.8774    3.5553    2.5614 C.ar    1  LIG1       -0.0523
     42 C           0.0814    4.9979    4.1078 C.ar    1  LIG1       -0.0371
     43 C           2.1840    3.8678    3.8895 C.ar    1  LIG1       -0.0611
     44 C          -2.4716    5.8091    2.3189 C.2     1  LIG1        0.4196
     45 C           1.2861    4.5745    4.6585 C.ar    1  LIG1       -0.0598
     46 C          -3.5059    7.0142    4.0828 C.3     1  LIG1        0.0835
     47 H           2.3519   -2.7831   -1.5113 H       1  LIG1        0.1510
     48 H1          3.1706    3.4754   -1.5856 H       1  LIG1        0.2002
     49 H2          3.6163    2.6205   -0.2234 H       1  LIG1        0.2002
     50 H3          2.6533    3.9566   -0.0490 H       1  LIG1        0.2002
     51 H           4.0246   -3.5994   -0.8333 H       1  LIG1        0.0498
     52 H           2.1251   -5.0552    1.8398 H       1  LIG1        0.0498
     53 H           5.9882   -4.7732   -0.6029 H       1  LIG1        0.0283
     54 H           5.2076   -6.3460   -0.6332 H       1  LIG1        0.0283
     55 H           4.0961   -7.2327    1.2675 H       1  LIG1        0.0283
     56 H           3.8214   -6.2946    2.7197 H       1  LIG1        0.0283
     57 H           4.9045   -4.3152    1.6461 H       1  LIG1        0.0266
     58 H           5.9714   -5.7207    1.6526 H       1  LIG1        0.0266
     59 HA          0.2516   -2.0943   -2.5319 H       1  LIG1        0.0595
     60 H          -0.9675   -2.5359    0.2296 H       1  LIG1        0.0293
     61 H          -1.2282   -3.5297   -1.2096 H       1  LIG1        0.0293
     62 H           3.5833   -6.1168   -2.4907 H       1  LIG1        0.0248
     63 H           4.7220   -4.8088   -2.8670 H       1  LIG1        0.0248
     64 H           2.9853   -4.5058   -2.8958 H       1  LIG1        0.0248
     65 H           1.9359   -7.6338    0.1934 H       1  LIG1        0.0248
     66 H           0.5683   -6.6907    0.7772 H       1  LIG1        0.0248
     67 H           1.6084   -7.5008    1.9342 H       1  LIG1        0.0248
     68 H          -2.1166   -0.4871    0.5932 H       1  LIG1        0.0235
     69 H          -3.4558    0.0074   -0.4472 H       1  LIG1        0.0235
     70 H          -1.8225    0.4055   -0.9071 H       1  LIG1        0.0235
     71 H          -2.4641   -2.4182   -3.2720 H       1  LIG1        0.0235
     72 H          -1.6969   -0.8316   -3.1178 H       1  LIG1        0.0235
     73 H          -3.4435   -0.9829   -2.9447 H       1  LIG1        0.0235
     74 H          -3.5648   -3.5330   -1.2637 H       1  LIG1        0.0235
     75 H          -4.4889   -2.0657   -0.9282 H       1  LIG1        0.0235
     76 H          -3.4729   -2.7760    0.3350 H       1  LIG1        0.0235
     77 HA          1.4586   -2.1726    0.8825 H       1  LIG1        0.0567
     78 H           2.7759   -0.1885    2.7314 H       1  LIG1        0.0287
     79 H           2.5449   -1.9024    2.9337 H       1  LIG1        0.0287
     80 HA          1.7820    1.8342   -1.7862 H       1  LIG1        0.0952
     81 H           0.0696   -1.6130    2.9389 H       1  LIG1        0.0266
     82 H           0.2758    0.1343    2.7572 H       1  LIG1        0.0266
     83 H          -0.4637    2.2186   -0.6862 H       1  LIG1        0.0374
     84 H           0.2716    3.6286   -1.4057 H       1  LIG1        0.0374
     85 H           1.6374    0.1810    4.8745 H       1  LIG1        0.0263
     86 H           1.4049   -1.5569    5.0584 H       1  LIG1        0.0263
     87 H          -1.9253    4.5801   -0.0111 H       1  LIG1        0.0818
     88 H          -0.8354    0.5295    5.0517 H       1  LIG1        0.0230
     89 H          -0.1680   -0.2895    6.4743 H       1  LIG1        0.0230
     90 H          -1.0570   -1.2217    5.2580 H       1  LIG1        0.0230
     91 H           2.6398    3.0053    2.0345 H       1  LIG1        0.0624
     92 H          -0.5967    5.5586    4.7439 H       1  LIG1        0.0638
     93 H           3.1284    3.5384    4.3181 H       1  LIG1        0.0618
     94 H           1.5177    4.8043    5.6964 H       1  LIG1        0.0618
     95 H          -3.8559    6.6323    5.0467 H       1  LIG1        0.0661
     96 H          -4.3562    7.0689    3.3978 H       1  LIG1        0.0661
     97 H          -3.0891    8.0131    4.2391 H       1  LIG1        0.0661
@<TRIPOS>BOND
     1     1    21    2
     2     2    24    2
     3     3    30    2
     4     4    34   ar
     5     5    34   ar
     6     6    44    1
     7     6    46    1
     8     7    44    2
     9     8    13    1
    10     8    14    1
    11     9    21   am
    12    10    24   am
    13    10    30   am
    14    12    39   ar
    15    12    38   ar
    16    12    44   am
    17    13    15    1
    18    13    22    1
    19    14    16    1
    20    14    23    1
    21    15    17    1
    22    16    17    1
    23    18     9    1
    24    18    24    1
    25    18    20    1
    26    19    20    1
    27    19    27    1
    28    19    26    1
    29    19    25    1
    30    21     8   am
    31    28    34    1
    32    28    29    1
    33    28    10    1
    34    29    32    1
    35    31    33    1
    36    31    11    1
    37    31    30    1
    38    32    36    1
    39    33    35    1
    40    35    38   ar
    41    35    37   ar
    42    36    40    1
    43    37    39   ar
    44    37    41   ar
    45    39    42   ar
    46    41    43   ar
    47    42    45   ar
    48    43    45   ar
    49     9    47    1
    50    11    48    1
    51    11    49    1
    52    11    50    1
    53    13    51    1
    54    14    52    1
    55    15    53    1
    56    15    54    1
    57    16    55    1
    58    16    56    1
    59    17    57    1
    60    17    58    1
    61    18    59    1
    62    20    60    1
    63    20    61    1
    64    22    62    1
    65    22    63    1
    66    22    64    1
    67    23    65    1
    68    23    66    1
    69    23    67    1
    70    25    68    1
    71    25    69    1
    72    25    70    1
    73    26    71    1
    74    26    72    1
    75    26    73    1
    76    27    74    1
    77    27    75    1
    78    27    76    1
    79    28    77    1
    80    29    78    1
    81    29    79    1
    82    31    80    1
    83    32    81    1
    84    32    82    1
    85    33    83    1
    86    33    84    1
    87    36    85    1
    88    36    86    1
    89    38    87    1
    90    40    88    1
    91    40    89    1
    92    40    90    1
    93    41    91    1
    94    42    92    1
    95    43    93    1
    96    45    94    1
    97    46    95    1
    98    46    96    1
    99    46    97    1
@<TRIPOS>MOLECULE
23693553
 97 99 0 0 0
SMALL
GASTEIGER

@<TRIPOS>ATOM
      1 O           0.5325   -4.4865    0.7721 O.2     1  LIG1       -0.2526
      2 O          -0.6010   -0.2803    0.2902 O.2     1  LIG1       -0.2731
      3 O           1.8775    1.2435   -0.6030 O.2     1  LIG1       -0.2689
      4 O           4.1715   -0.4880    2.5885 O.co2   1  LIG1       -0.5479
      5 OXT         4.3918   -1.5174    0.5579 O.co2   1  LIG1       -0.5479
      6 O           0.8201    8.4463    0.3950 O.3     1  LIG1       -0.4515
      7 O           2.6430    8.1556    1.7924 O.2     1  LIG1       -0.2227
      8 N           2.6570   -4.9689    0.0407 N.am    1  LIG1       -0.2801
      9 N           1.3765   -3.2197   -0.8994 N.am    1  LIG1       -0.2879
     10 N           1.5679   -0.6602    0.6245 N.am    1  LIG1       -0.2273
     11 N           0.5948    1.6166    2.4897 N.4     1  LIG1        0.2276
     12 N           1.3627    6.3610    1.1552 N.ar    1  LIG1       -0.2526
     13 C           3.8287   -4.7022   -0.8343 C.3     1  LIG1        0.0249
     14 C           2.7583   -5.9378    1.1575 C.3     1  LIG1        0.0249
     15 C           5.1711   -5.2657   -0.3429 C.3     1  LIG1       -0.0344
     16 C           4.1722   -6.3605    1.5814 C.3     1  LIG1       -0.0344
     17 C           5.2252   -5.3556    1.1678 C.3     1  LIG1       -0.0497
     18 CA          0.2714   -2.2546   -0.9251 C.3     1  LIG1        0.1019
     19 C          -1.7208   -3.8370   -1.8813 C.3     1  LIG1       -0.0356
     20 C          -1.1731   -2.8288   -0.8295 C.3     1  LIG1       -0.0210
     21 C           1.4567   -4.2548   -0.0049 C.2     1  LIG1        0.3033
     22 C           3.5768   -5.1821   -2.2673 C.3     1  LIG1       -0.0464
     23 C           1.9085   -7.1898    0.9018 C.3     1  LIG1       -0.0464
     24 C           0.3705   -1.0240    0.0621 C.2     1  LIG1        0.2429
     25 C          -1.6723   -3.2419   -3.2958 C.3     1  LIG1       -0.0600
     26 C          -0.9994   -5.1914   -1.8877 C.3     1  LIG1       -0.0600
     27 C          -3.2004   -4.1068   -1.5134 C.3     1  LIG1       -0.0600
     28 CA          2.2691   -1.5218    1.6158 C.3     1  LIG1        0.0730
     29 C           1.6371   -1.5844    3.0262 C.3     1  LIG1       -0.0286
     30 C           1.8550    0.6923    0.5008 C.2     1  LIG1        0.2708
     31 CA          1.9401    1.5220    1.8026 C.3     1  LIG1        0.0579
     32 C           0.1534   -1.9654    3.0567 C.3     1  LIG1       -0.0513
     33 C           2.5978    2.8951    1.6170 C.3     1  LIG1        0.0261
     34 C           3.7901   -1.1987    1.6157 C.2     1  LIG1        0.0626
     35 C           1.7756    4.1260    1.3124 C.ar    1  LIG1       -0.0158
     36 C          -0.3785   -2.1009    4.4815 C.3     1  LIG1       -0.0558
     37 C           0.5263    4.3199    0.6343 C.ar    1  LIG1        0.0038
     38 C           2.2053    5.3905    1.6699 C.ar    1  LIG1        0.0202
     39 C           0.2471    5.6994    0.6337 C.ar    1  LIG1        0.0598
     40 C          -1.8708   -2.4010    4.4793 C.3     1  LIG1       -0.0653
     41 C          -0.4201    3.4599    0.0282 C.ar    1  LIG1       -0.0523
     42 C          -0.9746    6.1991    0.1357 C.ar    1  LIG1       -0.0371
     43 C          -1.6288    3.9571   -0.4662 C.ar    1  LIG1       -0.0611
     44 C           1.6692    7.7403    1.1737 C.2     1  LIG1        0.4196
     45 C          -1.9075    5.3107   -0.3986 C.ar    1  LIG1       -0.0598
     46 C           1.1561    9.8244    0.2133 C.3     1  LIG1        0.0835
     47 H           2.2633   -2.8400   -1.2005 H       1  LIG1        0.1510
     48 H1          0.6868    1.4323    3.4937 H       1  LIG1        0.2002
     49 H2         -0.0548    0.9234    2.0812 H       1  LIG1        0.2002
     50 H3          0.1569    2.5357    2.3687 H       1  LIG1        0.2002
     51 H           3.9610   -3.6176   -0.8658 H       1  LIG1        0.0498
     52 H           2.3283   -5.4302    2.0330 H       1  LIG1        0.0498
     53 H           5.9901   -4.6351   -0.7101 H       1  LIG1        0.0283
     54 H           5.3461   -6.2640   -0.7664 H       1  LIG1        0.0283
     55 H           4.4245   -7.3365    1.1452 H       1  LIG1        0.0283
     56 H           4.1991   -6.5066    2.6684 H       1  LIG1        0.0283
     57 H           5.0459   -4.3794    1.6320 H       1  LIG1        0.0266
     58 H           6.2145   -5.6992    1.4898 H       1  LIG1        0.0266
     59 HA          0.3680   -1.7875   -1.9149 H       1  LIG1        0.0595
     60 H          -1.8563   -1.9673   -0.8676 H       1  LIG1        0.0293
     61 H          -1.3314   -3.2388    0.1753 H       1  LIG1        0.0293
     62 H           3.4027   -6.2633   -2.2930 H       1  LIG1        0.0248
     63 H           4.4391   -4.9602   -2.9063 H       1  LIG1        0.0248
     64 H           2.7033   -4.6981   -2.7126 H       1  LIG1        0.0248
     65 H           2.2685   -7.7345    0.0228 H       1  LIG1        0.0248
     66 H           0.8567   -6.9460    0.7263 H       1  LIG1        0.0248
     67 H           1.9473   -7.8633    1.7652 H       1  LIG1        0.0248
     68 H          -2.1735   -2.2688   -3.3346 H       1  LIG1        0.0235
     69 H          -2.1753   -3.8999   -4.0147 H       1  LIG1        0.0235
     70 H          -0.6417   -3.1083   -3.6397 H       1  LIG1        0.0235
     71 H          -1.0046   -5.6518   -0.8947 H       1  LIG1        0.0235
     72 H           0.0335   -5.1052   -2.2341 H       1  LIG1        0.0235
     73 H          -1.4982   -5.8961   -2.5644 H       1  LIG1        0.0235
     74 H          -3.2834   -4.5248   -0.5028 H       1  LIG1        0.0235
     75 H          -3.6646   -4.8186   -2.2049 H       1  LIG1        0.0235
     76 H          -3.7920   -3.1845   -1.5401 H       1  LIG1        0.0235
     77 HA          2.2266   -2.5388    1.2624 H       1  LIG1        0.0567
     78 H           1.7678   -0.6465    3.5701 H       1  LIG1        0.0287
     79 H           2.1970   -2.3318    3.6050 H       1  LIG1        0.0287
     80 HA          2.5561    1.0002    2.5208 H       1  LIG1        0.0952
     81 H          -0.0044   -2.9072    2.5266 H       1  LIG1        0.0266
     82 H          -0.4436   -1.2030    2.5539 H       1  LIG1        0.0266
     83 H           3.3956    2.8261    0.8664 H       1  LIG1        0.0374
     84 H           3.1169    3.1096    2.5651 H       1  LIG1        0.0374
     85 H          -0.2010   -1.1714    5.0342 H       1  LIG1        0.0263
     86 H           0.1540   -2.9032    5.0036 H       1  LIG1        0.0263
     87 H           3.1132    5.7017    2.1765 H       1  LIG1        0.0818
     88 H          -2.4321   -1.5961    3.9926 H       1  LIG1        0.0230
     89 H          -2.2402   -2.4993    5.5044 H       1  LIG1        0.0230
     90 H          -2.0841   -3.3342    3.9479 H       1  LIG1        0.0230
     91 H          -0.2406    2.3963   -0.0829 H       1  LIG1        0.0624
     92 H          -1.2086    7.2598    0.1501 H       1  LIG1        0.0638
     93 H          -2.3469    3.2760   -0.9182 H       1  LIG1        0.0618
     94 H          -2.8481    5.6906   -0.7914 H       1  LIG1        0.0618
     95 H           0.8458   10.1145   -0.7948 H       1  LIG1        0.0661
     96 H           2.2304   10.0153    0.3028 H       1  LIG1        0.0661
     97 H           0.6020   10.4269    0.9373 H       1  LIG1        0.0661
@<TRIPOS>BOND
     1     1    21    2
     2     2    24    2
     3     3    30    2
     4     4    34   ar
     5     5    34   ar
     6     6    44    1
     7     6    46    1
     8     7    44    2
     9     8    13    1
    10     8    14    1
    11     9    21   am
    12    10    24   am
    13    10    30   am
    14    12    39   ar
    15    12    38   ar
    16    12    44   am
    17    13    15    1
    18    13    22    1
    19    14    16    1
    20    14    23    1
    21    15    17    1
    22    16    17    1
    23    18     9    1
    24    18    24    1
    25    18    20    1
    26    19    20    1
    27    19    27    1
    28    19    26    1
    29    19    25    1
    30    21     8   am
    31    28    34    1
    32    28    29    1
    33    28    10    1
    34    29    32    1
    35    31    33    1
    36    31    11    1
    37    31    30    1
    38    32    36    1
    39    33    35    1
    40    35    38   ar
    41    35    37   ar
    42    36    40    1
    43    37    39   ar
    44    37    41   ar
    45    39    42   ar
    46    41    43   ar
    47    42    45   ar
    48    43    45   ar
    49     9    47    1
    50    11    48    1
    51    11    49    1
    52    11    50    1
    53    13    51    1
    54    14    52    1
    55    15    53    1
    56    15    54    1
    57    16    55    1
    58    16    56    1
    59    17    57    1
    60    17    58    1
    61    18    59    1
    62    20    60    1
    63    20    61    1
    64    22    62    1
    65    22    63    1
    66    22    64    1
    67    23    65    1
    68    23    66    1
    69    23    67    1
    70    25    68    1
    71    25    69    1
    72    25    70    1
    73    26    71    1
    74    26    72    1
    75    26    73    1
    76    27    74    1
    77    27    75    1
    78    27    76    1
    79    28    77    1
    80    29    78    1
    81    29    79    1
    82    31    80    1
    83    32    81    1
    84    32    82    1
    85    33    83    1
    86    33    84    1
    87    36    85    1
    88    36    86    1
    89    38    87    1
    90    40    88    1
    91    40    89    1
    92    40    90    1
    93    41    91    1
    94    42    92    1
    95    43    93    1
    96    45    94    1
    97    46    95    1
    98    46    96    1
    99    46    97    1
@<TRIPOS>MOLECULE
23693553
 97 99 0 0 0
SMALL
GASTEIGER

@<TRIPOS>ATOM
      1 O           1.3853    3.8441   -1.4704 O.2     1  LIG1       -0.2526
      2 O           0.5430   -1.2124   -1.4792 O.2     1  LIG1       -0.2731
      3 O           2.6663    2.0602    0.0536 O.2     1  LIG1       -0.2689
      4 O          -0.0676   -0.7278    1.5591 O.co2   1  LIG1       -0.5479
      5 OXT         0.5409   -2.9424    1.7331 O.co2   1  LIG1       -0.5479
      6 O           3.9112    5.6444    6.0878 O.3     1  LIG1       -0.4515
      7 O           3.3468    4.6087    8.0811 O.2     1  LIG1       -0.2227
      8 N          -0.8448    4.0479   -1.0365 N.am    1  LIG1       -0.2801
      9 N           0.0832    1.9949   -1.7059 N.am    1  LIG1       -0.2879
     10 N           1.9923   -0.1266   -0.0578 N.am    1  LIG1       -0.2273
     11 N           0.6141    1.9999    2.2704 N.4     1  LIG1        0.2276
     12 N           3.1454    3.5085    6.0632 N.ar    1  LIG1       -0.2526
     13 C          -2.2417    3.5656   -1.1312 C.3     1  LIG1        0.0249
     14 C          -0.5857    5.4770   -0.7299 C.3     1  LIG1        0.0249
     15 C          -3.2597    4.4033   -0.3373 C.3     1  LIG1       -0.0344
     16 C          -1.6314    6.1557    0.1705 C.3     1  LIG1       -0.0344
     17 C          -2.6008    5.1699    0.7940 C.3     1  LIG1       -0.0497
     18 CA          1.0658    1.0108   -2.1877 C.3     1  LIG1        0.1019
     19 C           2.4397    1.8335   -4.3135 C.3     1  LIG1       -0.0356
     20 C           2.4159    1.4346   -2.8062 C.3     1  LIG1       -0.0210
     21 C           0.2814    3.3147   -1.4275 C.2     1  LIG1        0.3033
     22 C          -2.7120    3.4326   -2.5844 C.3     1  LIG1       -0.0464
     23 C          -0.3466    6.3120   -1.9937 C.3     1  LIG1       -0.0464
     24 C           1.2094   -0.1977   -1.2181 C.2     1  LIG1        0.2429
     25 C           1.9408    0.6936   -5.2193 C.3     1  LIG1       -0.0600
     26 C           1.6085    3.0937   -4.5913 C.3     1  LIG1       -0.0600
     27 C           3.9089    2.1293   -4.6871 C.3     1  LIG1       -0.0600
     28 CA          2.0684   -1.3810    0.7387 C.3     1  LIG1        0.0730
     29 C           3.2269   -2.2839    0.2908 C.3     1  LIG1       -0.0286
     30 C           2.1902    1.0686    0.6056 C.2     1  LIG1        0.2708
     31 CA          1.8596    1.1912    2.1130 C.3     1  LIG1        0.0579
     32 C           3.2532   -2.8268   -1.1327 C.3     1  LIG1       -0.0513
     33 C           3.0870    1.8013    2.7897 C.3     1  LIG1        0.0261
     34 C           0.6742   -1.7590    1.3378 C.2     1  LIG1        0.0626
     35 C           2.9303    2.2087    4.2197 C.ar    1  LIG1       -0.0158
     36 C           4.6774   -3.1982   -1.5836 C.3     1  LIG1       -0.0558
     37 C           2.5148    1.4479    5.3493 C.ar    1  LIG1        0.0038
     38 C           3.2761    3.4564    4.6849 C.ar    1  LIG1        0.0202
     39 C           2.6484    2.2713    6.4787 C.ar    1  LIG1        0.0598
     40 C           5.4312   -4.1136   -0.6301 C.3     1  LIG1       -0.0653
     41 C           2.0552    0.1239    5.5291 C.ar    1  LIG1       -0.0523
     42 C           2.3263    1.8016    7.7675 C.ar    1  LIG1       -0.0371
     43 C           1.7242   -0.3365    6.8064 C.ar    1  LIG1       -0.0611
     44 C           3.4716    4.6206    6.8638 C.2     1  LIG1        0.4196
     45 C           1.8603    0.4932    7.9118 C.ar    1  LIG1       -0.0598
     46 C           4.2690    6.8191    6.8160 C.3     1  LIG1        0.0835
     47 H          -0.8477    1.6188   -1.6351 H       1  LIG1        0.1510
     48 H1          0.4408    2.2615    3.2460 H       1  LIG1        0.2002
     49 H2         -0.1465    1.3461    1.9809 H       1  LIG1        0.2002
     50 H3          0.6150    2.8184    1.6513 H       1  LIG1        0.2002
     51 H          -2.2550    2.5667   -0.6779 H       1  LIG1        0.0498
     52 H           0.3526    5.4984   -0.1600 H       1  LIG1        0.0498
     53 H          -4.0456    3.7485    0.0580 H       1  LIG1        0.0283
     54 H          -3.7674    5.1180   -0.9992 H       1  LIG1        0.0283
     55 H          -2.2024    6.8975   -0.4030 H       1  LIG1        0.0283
     56 H          -1.1212    6.7246    0.9589 H       1  LIG1        0.0283
     57 H          -2.0829    4.4903    1.4799 H       1  LIG1        0.0266
     58 H          -3.3569    5.7103    1.3731 H       1  LIG1        0.0266
     59 HA          0.5058    0.5583   -3.0159 H       1  LIG1        0.0595
     60 H           3.1041    0.5837   -2.6989 H       1  LIG1        0.0293
     61 H           2.8829    2.2405   -2.2380 H       1  LIG1        0.0293
     62 H          -2.6950    4.4013   -3.0948 H       1  LIG1        0.0248
     63 H          -3.7374    3.0475   -2.6240 H       1  LIG1        0.0248
     64 H          -2.0805    2.7507   -3.1596 H       1  LIG1        0.0248
     65 H          -1.2390    6.3382   -2.6287 H       1  LIG1        0.0248
     66 H           0.4734    5.9145   -2.5988 H       1  LIG1        0.0248
     67 H          -0.0867    7.3434   -1.7287 H       1  LIG1        0.0248
     68 H           2.4482   -0.2491   -4.9867 H       1  LIG1        0.0235
     69 H           2.1319    0.9205   -6.2751 H       1  LIG1        0.0235
     70 H           0.8629    0.5327   -5.1226 H       1  LIG1        0.0235
     71 H           1.9706    3.9448   -4.0062 H       1  LIG1        0.0235
     72 H           0.5500    2.9405   -4.3609 H       1  LIG1        0.0235
     73 H           1.6719    3.3793   -5.6481 H       1  LIG1        0.0235
     74 H           4.3231    2.9294   -4.0623 H       1  LIG1        0.0235
     75 H           4.0011    2.4428   -5.7328 H       1  LIG1        0.0235
     76 H           4.5369    1.2412   -4.5499 H       1  LIG1        0.0235
     77 HA          2.5341   -1.0866    1.6888 H       1  LIG1        0.0567
     78 H           3.2908   -3.1297    0.9848 H       1  LIG1        0.0287
     79 H           4.1477   -1.6986    0.4362 H       1  LIG1        0.0287
     80 HA          1.6380    0.2742    2.6372 H       1  LIG1        0.0952
     81 H           2.8874   -2.0886   -1.8506 H       1  LIG1        0.0266
     82 H           2.5976   -3.7014   -1.2024 H       1  LIG1        0.0266
     83 H           3.4492    2.6653    2.2248 H       1  LIG1        0.0374
     84 H           3.9017    1.0638    2.7433 H       1  LIG1        0.0374
     85 H           5.2613   -2.2777   -1.7152 H       1  LIG1        0.0263
     86 H           4.6217   -3.6740   -2.5693 H       1  LIG1        0.0263
     87 H           3.6558    4.3066    4.1476 H       1  LIG1        0.0818
     88 H           5.6380   -3.6180    0.3242 H       1  LIG1        0.0230
     89 H           6.3972   -4.3924   -1.0636 H       1  LIG1        0.0230
     90 H           4.8669   -5.0289   -0.4311 H       1  LIG1        0.0230
     91 H           1.9536   -0.5665    4.6962 H       1  LIG1        0.0624
     92 H           2.4387    2.4316    8.6474 H       1  LIG1        0.0638
     93 H           1.3662   -1.3555    6.9372 H       1  LIG1        0.0618
     94 H           1.6111    0.1193    8.9026 H       1  LIG1        0.0618
     95 H           4.4861    7.6062    6.0941 H       1  LIG1        0.0661
     96 H           5.1700    6.6304    7.4108 H       1  LIG1        0.0661
     97 H           3.4434    7.1491    7.4528 H       1  LIG1        0.0661
@<TRIPOS>BOND
     1     1    21    2
     2     2    24    2
     3     3    30    2
     4     4    34   ar
     5     5    34   ar
     6     6    44    1
     7     6    46    1
     8     7    44    2
     9     8    13    1
    10     8    14    1
    11     9    21   am
    12    10    24   am
    13    10    30   am
    14    12    39   ar
    15    12    38   ar
    16    12    44   am
    17    13    15    1
    18    13    22    1
    19    14    16    1
    20    14    23    1
    21    15    17    1
    22    16    17    1
    23    18     9    1
    24    18    24    1
    25    18    20    1
    26    19    20    1
    27    19    27    1
    28    19    26    1
    29    19    25    1
    30    21     8   am
    31    28    34    1
    32    28    29    1
    33    28    10    1
    34    29    32    1
    35    31    33    1
    36    31    11    1
    37    31    30    1
    38    32    36    1
    39    33    35    1
    40    35    38   ar
    41    35    37   ar
    42    36    40    1
    43    37    39   ar
    44    37    41   ar
    45    39    42   ar
    46    41    43   ar
    47    42    45   ar
    48    43    45   ar
    49     9    47    1
    50    11    48    1
    51    11    49    1
    52    11    50    1
    53    13    51    1
    54    14    52    1
    55    15    53    1
    56    15    54    1
    57    16    55    1
    58    16    56    1
    59    17    57    1
    60    17    58    1
    61    18    59    1
    62    20    60    1
    63    20    61    1
    64    22    62    1
    65    22    63    1
    66    22    64    1
    67    23    65    1
    68    23    66    1
    69    23    67    1
    70    25    68    1
    71    25    69    1
    72    25    70    1
    73    26    71    1
    74    26    72    1
    75    26    73    1
    76    27    74    1
    77    27    75    1
    78    27    76    1
    79    28    77    1
    80    29    78    1
    81    29    79    1
    82    31    80    1
    83    32    81    1
    84    32    82    1
    85    33    83    1
    86    33    84    1
    87    36    85    1
    88    36    86    1
    89    38    87    1
    90    40    88    1
    91    40    89    1
    92    40    90    1
    93    41    91    1
    94    42    92    1
    95    43    93    1
    96    45    94    1
    97    46    95    1
    98    46    96    1
    99    46    97    1
@<TRIPOS>MOLECULE
23693553
 97 99 0 0 0
SMALL
GASTEIGER

@<TRIPOS>ATOM
      1 O          -1.3352    1.4906   -3.9482 O.2     1  LIG1       -0.2526
      2 O           0.2717   -1.6188   -1.5047 O.2     1  LIG1       -0.2731
      3 O           1.2570    1.9346    0.0568 O.2     1  LIG1       -0.2689
      4 O           0.5116   -3.3166    1.9461 O.co2   1  LIG1       -0.5479
      5 OXT        -0.5410   -1.3393    1.4573 O.co2   1  LIG1       -0.5479
      6 O           2.3144   -1.5231    7.7900 O.3     1  LIG1       -0.4515
      7 O           2.4617    0.4250    9.0301 O.2     1  LIG1       -0.2227
      8 N          -2.0794    2.9209   -2.2924 N.am    1  LIG1       -0.2801
      9 N          -0.2181    1.5348   -1.9825 N.am    1  LIG1       -0.2879
     10 N           1.5056   -0.3594   -0.0154 N.am    1  LIG1       -0.2273
     11 N           3.0896    0.8782    2.5436 N.4     1  LIG1        0.2276
     12 N           1.7884    0.4629    6.8227 N.ar    1  LIG1       -0.2526
     13 C          -3.1480    3.3885   -3.1993 C.3     1  LIG1        0.0249
     14 C          -1.9648    3.4775   -0.9268 C.3     1  LIG1        0.0249
     15 C          -4.3015    4.1279   -2.5099 C.3     1  LIG1       -0.0344
     16 C          -3.2726    3.9926   -0.2965 C.3     1  LIG1       -0.0344
     17 C          -4.5091    3.6285   -1.0948 C.3     1  LIG1       -0.0497
     18 CA          0.7948    0.5478   -2.3510 C.3     1  LIG1        0.1019
     19 C           3.2182    0.4313   -3.4756 C.3     1  LIG1       -0.0356
     20 C           2.1039    1.2523   -2.7660 C.3     1  LIG1       -0.0210
     21 C          -1.2165    1.9495   -2.8141 C.2     1  LIG1        0.3033
     22 C          -2.5974    4.2593   -4.3359 C.3     1  LIG1       -0.0464
     23 C          -0.8910    4.5718   -0.8728 C.3     1  LIG1       -0.0464
     24 C           0.8621   -0.5591   -1.2591 C.2     1  LIG1        0.2429
     25 C           3.9730   -0.4564   -2.4818 C.3     1  LIG1       -0.0600
     26 C           2.6670   -0.4420   -4.6125 C.3     1  LIG1       -0.0600
     27 C           4.2360    1.4272   -4.0721 C.3     1  LIG1       -0.0600
     28 CA          1.6935   -1.6316    0.7580 C.3     1  LIG1        0.0730
     29 C           2.7360   -2.6288    0.2037 C.3     1  LIG1       -0.0286
     30 C           1.3566    0.8544    0.6641 C.2     1  LIG1        0.2708
     31 CA          1.6205    1.0449    2.1950 C.3     1  LIG1        0.0579
     32 C           2.3062   -3.5809   -0.9142 C.3     1  LIG1       -0.0513
     33 C           0.7189    0.4239    3.2644 C.3     1  LIG1        0.0261
     34 C           0.3809   -2.2073    1.3648 C.2     1  LIG1        0.0626
     35 C           1.1134    0.7707    4.6769 C.ar    1  LIG1       -0.0158
     36 C           3.4544   -4.5065   -1.3269 C.3     1  LIG1       -0.0558
     37 C           1.1651    2.0427    5.3155 C.ar    1  LIG1        0.0038
     38 C           1.4969   -0.1588    5.6197 C.ar    1  LIG1        0.0202
     39 C           1.6167    1.8378    6.6282 C.ar    1  LIG1        0.0598
     40 C           3.0544   -5.3898   -2.4990 C.3     1  LIG1       -0.0653
     41 C           0.8718    3.3585    4.8942 C.ar    1  LIG1       -0.0523
     42 C           1.8043    2.9197    7.5099 C.ar    1  LIG1       -0.0371
     43 C           1.0639    4.4314    5.7697 C.ar    1  LIG1       -0.0611
     44 C           2.2076   -0.1861    8.0061 C.2     1  LIG1        0.4196
     45 C           1.5280    4.2138    7.0584 C.ar    1  LIG1       -0.0598
     46 C           2.7545   -2.2650    8.9276 C.3     1  LIG1        0.0835
     47 H           0.0047    2.0738   -1.1621 H       1  LIG1        0.1510
     48 H1          3.2852    1.3625    3.4300 H       1  LIG1        0.2002
     49 H2          3.6839    1.2886    1.8142 H       1  LIG1        0.2002
     50 H3          3.3447   -0.1057    2.6808 H       1  LIG1        0.2002
     51 H          -3.5772    2.4853   -3.6550 H       1  LIG1        0.0498
     52 H          -1.6363    2.6589   -0.2754 H       1  LIG1        0.0498
     53 H          -5.2203    4.0009   -3.0948 H       1  LIG1        0.0283
     54 H          -4.1027    5.2078   -2.4825 H       1  LIG1        0.0283
     55 H          -3.2367    5.0850   -0.1866 H       1  LIG1        0.0283
     56 H          -3.3651    3.6025    0.7249 H       1  LIG1        0.0283
     57 H          -4.6794    2.5461   -1.0806 H       1  LIG1        0.0266
     58 H          -5.3896    4.1064   -0.6512 H       1  LIG1        0.0266
     59 HA          0.4165    0.0351   -3.2435 H       1  LIG1        0.0595
     60 H           2.5530    1.7630   -1.9074 H       1  LIG1        0.0293
     61 H           1.8145    2.0629   -3.4519 H       1  LIG1        0.0293
     62 H          -2.0980    5.1508   -3.9421 H       1  LIG1        0.0248
     63 H          -3.4061    4.5835   -5.0001 H       1  LIG1        0.0248
     64 H          -1.8685    3.7208   -4.9486 H       1  LIG1        0.0248
     65 H          -1.1893    5.4432   -1.4655 H       1  LIG1        0.0248
     66 H           0.0685    4.2275   -1.2699 H       1  LIG1        0.0248
     67 H          -0.7263    4.8998    0.1593 H       1  LIG1        0.0248
     68 H           4.2734    0.1010   -1.5879 H       1  LIG1        0.0235
     69 H           4.8792   -0.8809   -2.9286 H       1  LIG1        0.0235
     70 H           3.3533   -1.2947   -2.1741 H       1  LIG1        0.0235
     71 H           2.0944    0.1562   -5.3293 H       1  LIG1        0.0235
     72 H           2.0151   -1.2365   -4.2339 H       1  LIG1        0.0235
     73 H           3.4803   -0.9318   -5.1610 H       1  LIG1        0.0235
     74 H           3.7671    2.0706   -4.8249 H       1  LIG1        0.0235
     75 H           5.0680    0.9041   -4.5577 H       1  LIG1        0.0235
     76 H           4.6589    2.0729   -3.2940 H       1  LIG1        0.0235
     77 HA          2.1999   -1.3168    1.6707 H       1  LIG1        0.0567
     78 H           3.0658   -3.2581    1.0430 H       1  LIG1        0.0287
     79 H           3.6287   -2.0717   -0.1032 H       1  LIG1        0.0287
     80 HA          1.4943    2.1296    2.3214 H       1  LIG1        0.0952
     81 H           2.0087   -3.0280   -1.8054 H       1  LIG1        0.0266
     82 H           1.4470   -4.1792   -0.5918 H       1  LIG1        0.0266
     83 H           0.7687   -0.6615    3.2245 H       1  LIG1        0.0374
     84 H          -0.3232    0.7192    3.0963 H       1  LIG1        0.0374
     85 H           3.7564   -5.1343   -0.4814 H       1  LIG1        0.0263
     86 H           4.3260   -3.9074   -1.6171 H       1  LIG1        0.0263
     87 H           1.5466   -1.2404    5.5423 H       1  LIG1        0.0818
     88 H           2.2186   -6.0430   -2.2297 H       1  LIG1        0.0230
     89 H           3.8957   -6.0189   -2.8056 H       1  LIG1        0.0230
     90 H           2.7532   -4.7851   -3.3610 H       1  LIG1        0.0230
     91 H           0.4744    3.5564    3.9024 H       1  LIG1        0.0624
     92 H           2.1424    2.7691    8.5329 H       1  LIG1        0.0638
     93 H           0.8314    5.4436    5.4458 H       1  LIG1        0.0618
     94 H           1.6604    5.0531    7.7365 H       1  LIG1        0.0618
     95 H           2.9133   -3.3005    8.6138 H       1  LIG1        0.0661
     96 H           1.9880   -2.2492    9.7079 H       1  LIG1        0.0661
     97 H           3.7030   -1.8708    9.3055 H       1  LIG1        0.0661
@<TRIPOS>BOND
     1     1    21    2
     2     2    24    2
     3     3    30    2
     4     4    34   ar
     5     5    34   ar
     6     6    44    1
     7     6    46    1
     8     7    44    2
     9     8    13    1
    10     8    14    1
    11     9    21   am
    12    10    24   am
    13    10    30   am
    14    12    39   ar
    15    12    38   ar
    16    12    44   am
    17    13    15    1
    18    13    22    1
    19    14    16    1
    20    14    23    1
    21    15    17    1
    22    16    17    1
    23    18     9    1
    24    18    24    1
    25    18    20    1
    26    19    20    1
    27    19    27    1
    28    19    26    1
    29    19    25    1
    30    21     8   am
    31    28    34    1
    32    28    29    1
    33    28    10    1
    34    29    32    1
    35    31    33    1
    36    31    11    1
    37    31    30    1
    38    32    36    1
    39    33    35    1
    40    35    38   ar
    41    35    37   ar
    42    36    40    1
    43    37    39   ar
    44    37    41   ar
    45    39    42   ar
    46    41    43   ar
    47    42    45   ar
    48    43    45   ar
    49     9    47    1
    50    11    48    1
    51    11    49    1
    52    11    50    1
    53    13    51    1
    54    14    52    1
    55    15    53    1
    56    15    54    1
    57    16    55    1
    58    16    56    1
    59    17    57    1
    60    17    58    1
    61    18    59    1
    62    20    60    1
    63    20    61    1
    64    22    62    1
    65    22    63    1
    66    22    64    1
    67    23    65    1
    68    23    66    1
    69    23    67    1
    70    25    68    1
    71    25    69    1
    72    25    70    1
    73    26    71    1
    74    26    72    1
    75    26    73    1
    76    27    74    1
    77    27    75    1
    78    27    76    1
    79    28    77    1
    80    29    78    1
    81    29    79    1
    82    31    80    1
    83    32    81    1
    84    32    82    1
    85    33    83    1
    86    33    84    1
    87    36    85    1
    88    36    86    1
    89    38    87    1
    90    40    88    1
    91    40    89    1
    92    40    90    1
    93    41    91    1
    94    42    92    1
    95    43    93    1
    96    45    94    1
    97    46    95    1
    98    46    96    1
    99    46    97    1
@<TRIPOS>MOLECULE
23693553
 97 99 0 0 0
SMALL
GASTEIGER

@<TRIPOS>ATOM
      1 O          -0.7800    0.7414   -4.4667 O.2     1  LIG1       -0.2526
      2 O           0.0445   -1.3747   -1.2048 O.2     1  LIG1       -0.2731
      3 O          -0.0193    1.9039    0.3708 O.2     1  LIG1       -0.2689
      4 O           3.6348    0.6536    1.0570 O.co2   1  LIG1       -0.5479
      5 OXT         4.3963   -1.4941    1.2503 O.co2   1  LIG1       -0.5479
      6 O           2.1718    3.7249    8.2827 O.3     1  LIG1       -0.4515
      7 O           0.2209    4.2156    7.1402 O.2     1  LIG1       -0.2227
      8 N          -2.4237    1.9760   -3.4338 N.am    1  LIG1       -0.2801
      9 N          -0.4257    1.4072   -2.3335 N.am    1  LIG1       -0.2879
     10 N           1.2020   -0.0362    0.2176 N.am    1  LIG1       -0.2273
     11 N           0.0783    1.5445    3.1001 N.4     1  LIG1        0.2276
     12 N           2.1379    3.7377    5.9923 N.ar    1  LIG1       -0.2526
     13 C          -3.0396    2.5158   -2.2062 C.3     1  LIG1        0.0249
     14 C          -3.1383    2.0518   -4.7289 C.3     1  LIG1        0.0249
     15 C          -4.2032    3.4890   -2.4375 C.3     1  LIG1       -0.0344
     16 C          -4.1678    3.1889   -4.8600 C.3     1  LIG1       -0.0344
     17 C          -4.0578    4.2221   -3.7557 C.3     1  LIG1       -0.0497
     18 CA          0.8433    0.7044   -2.2019 C.3     1  LIG1        0.1019
     19 C           2.4662    2.5075   -3.3119 C.3     1  LIG1       -0.0356
     20 C           2.0583    1.6469   -2.0771 C.3     1  LIG1       -0.0210
     21 C          -1.1930    1.3154   -3.4626 C.2     1  LIG1        0.3033
     22 C          -3.4944    1.3939   -1.2653 C.3     1  LIG1       -0.0464
     23 C          -3.7853    0.7148   -5.1100 C.3     1  LIG1       -0.0464
     24 C           0.7085   -0.3419   -1.0510 C.2     1  LIG1        0.2429
     25 C           2.7172    1.6412   -4.5553 C.3     1  LIG1       -0.0600
     26 C           1.4225    3.5888   -3.6408 C.3     1  LIG1       -0.0600
     27 C           3.7839    3.2309   -2.9557 C.3     1  LIG1       -0.0600
     28 CA          2.0789   -1.1071    0.7862 C.3     1  LIG1        0.0730
     29 C           1.6175   -1.7839    2.0956 C.3     1  LIG1       -0.0286
     30 C           0.8735    1.1630    0.8238 C.2     1  LIG1        0.2708
     31 CA          1.3549    1.5018    2.2514 C.3     1  LIG1        0.0579
     32 C           0.1204   -2.0690    2.2250 C.3     1  LIG1       -0.0513
     33 C           2.0269    2.8876    2.3628 C.3     1  LIG1        0.0261
     34 C           3.5336   -0.6114    1.0278 C.2     1  LIG1        0.0626
     35 C           2.3731    3.2190    3.7958 C.ar    1  LIG1       -0.0158
     36 C          -0.2466   -2.6136    3.6147 C.3     1  LIG1       -0.0558
     37 C           3.6222    3.0082    4.4546 C.ar    1  LIG1        0.0038
     38 C           1.5332    3.7738    4.7378 C.ar    1  LIG1        0.0202
     39 C           3.4746    3.3836    5.8003 C.ar    1  LIG1        0.0598
     40 C          -0.1456   -1.5845    4.7353 C.3     1  LIG1       -0.0653
     41 C           4.8728    2.5234    4.0146 C.ar    1  LIG1       -0.0523
     42 C           4.5658    3.3308    6.6913 C.ar    1  LIG1       -0.0371
     43 C           5.9519    2.4721    4.9013 C.ar    1  LIG1       -0.0611
     44 C           1.4151    3.9571    7.1868 C.2     1  LIG1        0.4196
     45 C           5.8008    2.8797    6.2194 C.ar    1  LIG1       -0.0598
     46 C           1.4629    3.7627    9.5233 C.3     1  LIG1        0.0835
     47 H          -0.7771    1.8346   -1.4926 H       1  LIG1        0.1510
     48 H1          0.3021    1.6479    4.0943 H       1  LIG1        0.2002
     49 H2         -0.4731    0.6931    2.9634 H       1  LIG1        0.2002
     50 H3         -0.4990    2.3332    2.7812 H       1  LIG1        0.2002
     51 H          -2.2606    3.0950   -1.6962 H       1  LIG1        0.0498
     52 H          -2.3682    2.2559   -5.4867 H       1  LIG1        0.0498
     53 H          -4.2510    4.2060   -1.6090 H       1  LIG1        0.0283
     54 H          -5.1612    2.9519   -2.4306 H       1  LIG1        0.0283
     55 H          -5.1869    2.7789   -4.8526 H       1  LIG1        0.0283
     56 H          -4.0556    3.6751   -5.8369 H       1  LIG1        0.0283
     57 H          -3.1007    4.7535   -3.8083 H       1  LIG1        0.0266
     58 H          -4.8549    4.9661   -3.8627 H       1  LIG1        0.0266
     59 HA          1.0097    0.0809   -3.0887 H       1  LIG1        0.0595
     60 H           2.9230    1.0273   -1.8010 H       1  LIG1        0.0293
     61 H           1.9084    2.3376   -1.2399 H       1  LIG1        0.0293
     62 H          -4.2655    0.7753   -1.7375 H       1  LIG1        0.0248
     63 H          -3.9085    1.8096   -0.3403 H       1  LIG1        0.0248
     64 H          -2.6716    0.7283   -0.9884 H       1  LIG1        0.0248
     65 H          -4.5434    0.4209   -4.3768 H       1  LIG1        0.0248
     66 H          -3.0505   -0.0940   -5.1649 H       1  LIG1        0.0248
     67 H          -4.2658    0.7864   -6.0928 H       1  LIG1        0.0248
     68 H           3.4454    0.8502   -4.3452 H       1  LIG1        0.0235
     69 H           3.1105    2.2446   -5.3819 H       1  LIG1        0.0235
     70 H           1.8003    1.1671   -4.9159 H       1  LIG1        0.0235
     71 H           1.1015    4.1208   -2.7386 H       1  LIG1        0.0235
     72 H           0.5374    3.1751   -4.1274 H       1  LIG1        0.0235
     73 H           1.8315    4.3332   -4.3343 H       1  LIG1        0.0235
     74 H           3.6543    3.8781   -2.0806 H       1  LIG1        0.0235
     75 H           4.1301    3.8593   -3.7846 H       1  LIG1        0.0235
     76 H           4.5815    2.5148   -2.7289 H       1  LIG1        0.0235
     77 HA          2.1634   -1.8977    0.0263 H       1  LIG1        0.0567
     78 H           1.9687   -1.2213    2.9629 H       1  LIG1        0.0287
     79 H           2.1465   -2.7448    2.1783 H       1  LIG1        0.0287
     80 HA          1.9565    0.7408    2.7300 H       1  LIG1        0.0952
     81 H          -0.1612   -2.8146    1.4722 H       1  LIG1        0.0266
     82 H          -0.4766   -1.1769    2.0195 H       1  LIG1        0.0266
     83 H           1.3619    3.6666    1.9674 H       1  LIG1        0.0374
     84 H           2.9288    2.9315    1.7432 H       1  LIG1        0.0374
     85 H           0.3916   -3.4710    3.8567 H       1  LIG1        0.0263
     86 H          -1.2778   -2.9833    3.5850 H       1  LIG1        0.0263
     87 H           0.5133    4.1305    4.6630 H       1  LIG1        0.0818
     88 H           0.8602   -1.1658    4.8269 H       1  LIG1        0.0230
     89 H          -0.3946   -2.0482    5.6959 H       1  LIG1        0.0230
     90 H          -0.8505   -0.7630    4.5772 H       1  LIG1        0.0230
     91 H           5.0147    2.1977    2.9842 H       1  LIG1        0.0624
     92 H           4.4791    3.6369    7.7294 H       1  LIG1        0.0638
     93 H           6.9166    2.1118    4.5495 H       1  LIG1        0.0618
     94 H           6.6527    2.8409    6.8951 H       1  LIG1        0.0618
     95 H           2.0048    3.1379   10.2397 H       1  LIG1        0.0661
     96 H           0.4464    3.3653    9.4331 H       1  LIG1        0.0661
     97 H           1.4408    4.7895    9.8979 H       1  LIG1        0.0661
@<TRIPOS>BOND
     1     1    21    2
     2     2    24    2
     3     3    30    2
     4     4    34   ar
     5     5    34   ar
     6     6    44    1
     7     6    46    1
     8     7    44    2
     9     8    13    1
    10     8    14    1
    11     9    21   am
    12    10    24   am
    13    10    30   am
    14    12    39   ar
    15    12    38   ar
    16    12    44   am
    17    13    15    1
    18    13    22    1
    19    14    16    1
    20    14    23    1
    21    15    17    1
    22    16    17    1
    23    18     9    1
    24    18    24    1
    25    18    20    1
    26    19    20    1
    27    19    27    1
    28    19    26    1
    29    19    25    1
    30    21     8   am
    31    28    34    1
    32    28    29    1
    33    28    10    1
    34    29    32    1
    35    31    33    1
    36    31    11    1
    37    31    30    1
    38    32    36    1
    39    33    35    1
    40    35    38   ar
    41    35    37   ar
    42    36    40    1
    43    37    39   ar
    44    37    41   ar
    45    39    42   ar
    46    41    43   ar
    47    42    45   ar
    48    43    45   ar
    49     9    47    1
    50    11    48    1
    51    11    49    1
    52    11    50    1
    53    13    51    1
    54    14    52    1
    55    15    53    1
    56    15    54    1
    57    16    55    1
    58    16    56    1
    59    17    57    1
    60    17    58    1
    61    18    59    1
    62    20    60    1
    63    20    61    1
    64    22    62    1
    65    22    63    1
    66    22    64    1
    67    23    65    1
    68    23    66    1
    69    23    67    1
    70    25    68    1
    71    25    69    1
    72    25    70    1
    73    26    71    1
    74    26    72    1
    75    26    73    1
    76    27    74    1
    77    27    75    1
    78    27    76    1
    79    28    77    1
    80    29    78    1
    81    29    79    1
    82    31    80    1
    83    32    81    1
    84    32    82    1
    85    33    83    1
    86    33    84    1
    87    36    85    1
    88    36    86    1
    89    38    87    1
    90    40    88    1
    91    40    89    1
    92    40    90    1
    93    41    91    1
    94    42    92    1
    95    43    93    1
    96    45    94    1
    97    46    95    1
    98    46    96    1
    99    46    97    1
@<TRIPOS>MOLECULE
23693553
 97 99 0 0 0
SMALL
GASTEIGER

@<TRIPOS>ATOM
      1 O           0.0832   -4.9375   -1.6679 O.2     1  LIG1       -0.2526
      2 O           1.4858   -0.1099   -2.1672 O.2     1  LIG1       -0.2731
      3 O           0.5704    1.6426    1.3937 O.2     1  LIG1       -0.2689
      4 O           4.0511   -2.0162    0.8194 O.co2   1  LIG1       -0.5479
      5 OXT         3.7880    0.1457    0.1327 O.co2   1  LIG1       -0.5479
      6 O           1.9273    8.6154   -3.6640 O.3     1  LIG1       -0.4515
      7 O           1.7171    8.7596   -1.3659 O.2     1  LIG1       -0.2227
      8 N           1.6577   -5.4495   -0.0606 N.am    1  LIG1       -0.2801
      9 N           1.2548   -3.2382   -0.7172 N.am    1  LIG1       -0.2879
     10 N           1.1334   -0.2050    0.1185 N.am    1  LIG1       -0.2273
     11 N           2.9604    2.0558   -1.0146 N.4     1  LIG1        0.2276
     12 N           1.7398    6.7124   -2.4029 N.ar    1  LIG1       -0.2526
     13 C           2.7780   -5.0488    0.8226 C.3     1  LIG1        0.0249
     14 C           1.2826   -6.8729   -0.1502 C.3     1  LIG1        0.0249
     15 C           2.9166   -5.8757    2.1133 C.3     1  LIG1       -0.0344
     16 C           1.6358   -7.7007    1.0946 C.3     1  LIG1       -0.0344
     17 C           1.7564   -6.8298    2.3316 C.3     1  LIG1       -0.0497
     18 CA          0.5191   -2.1804   -1.4157 C.3     1  LIG1        0.1019
     19 C          -1.9420   -1.4240   -2.1156 C.3     1  LIG1       -0.0356
     20 C          -1.0023   -2.1730   -1.1087 C.3     1  LIG1       -0.0210
     21 C           0.9561   -4.5678   -0.8858 C.2     1  LIG1        0.3033
     22 C           4.0980   -5.0252    0.0472 C.3     1  LIG1       -0.0464
     23 C           1.8488   -7.5387   -1.4078 C.3     1  LIG1       -0.0464
     24 C           1.1115   -0.7580   -1.1818 C.2     1  LIG1        0.2429
     25 C          -2.0835    0.0613   -1.7412 C.3     1  LIG1       -0.0600
     26 C          -1.4765   -1.5287   -3.5786 C.3     1  LIG1       -0.0600
     27 C          -3.3472   -2.0620   -2.0284 C.3     1  LIG1       -0.0600
     28 CA          1.9224   -0.9651    1.1244 C.3     1  LIG1        0.0730
     29 C           1.9138   -0.5629    2.6083 C.3     1  LIG1       -0.0286
     30 C           1.0327    1.1814    0.3462 C.2     1  LIG1        0.2708
     31 CA          1.4866    2.1499   -0.7746 C.3     1  LIG1        0.0579
     32 C           0.5858   -0.9010    3.2974 C.3     1  LIG1       -0.0513
     33 C           1.1366    3.6062   -0.4516 C.3     1  LIG1        0.0261
     34 C           3.4276   -0.9354    0.7047 C.2     1  LIG1        0.0626
     35 C           1.4278    4.6336   -1.5225 C.ar    1  LIG1       -0.0158
     36 C           0.6480   -0.7273    4.8180 C.3     1  LIG1       -0.0558
     37 C           1.5876    4.5134   -2.9455 C.ar    1  LIG1        0.0038
     38 C           1.5520    5.9798   -1.2420 C.ar    1  LIG1        0.0202
     39 C           1.8266    5.8026   -3.4613 C.ar    1  LIG1        0.0598
     40 C           1.4434   -1.8252    5.5127 C.3     1  LIG1       -0.0653
     41 C           1.5572    3.4340   -3.8649 C.ar    1  LIG1       -0.0523
     42 C           2.0699    6.0005   -4.8375 C.ar    1  LIG1       -0.0371
     43 C           1.8004    3.6375   -5.2257 C.ar    1  LIG1       -0.0611
     44 C           1.8014    8.1282   -2.4091 C.2     1  LIG1        0.4196
     45 C           2.0604    4.9074   -5.7037 C.ar    1  LIG1       -0.0598
     46 C           1.9490   10.0395   -3.7924 C.3     1  LIG1        0.0835
     47 H           2.2516   -3.0826   -0.6026 H       1  LIG1        0.1510
     48 H1          3.2790    2.3459   -1.9388 H       1  LIG1        0.2002
     49 H2          3.2810    1.0572   -0.8817 H       1  LIG1        0.2002
     50 H3          3.5244    2.4904   -0.2779 H       1  LIG1        0.2002
     51 H           2.5695   -4.0329    1.1628 H       1  LIG1        0.0498
     52 H           0.1876   -6.8973   -0.2394 H       1  LIG1        0.0498
     53 H           3.0026   -5.1991    2.9731 H       1  LIG1        0.0283
     54 H           3.8518   -6.4507    2.0995 H       1  LIG1        0.0283
     55 H           2.5824   -8.2360    0.9439 H       1  LIG1        0.0283
     56 H           0.8717   -8.4717    1.2506 H       1  LIG1        0.0283
     57 H           0.8274   -6.2773    2.5143 H       1  LIG1        0.0266
     58 H           1.9477   -7.4497    3.2143 H       1  LIG1        0.0266
     59 HA          0.6764   -2.4136   -2.4750 H       1  LIG1        0.0595
     60 H          -1.1700   -1.7811   -0.0963 H       1  LIG1        0.0293
     61 H          -1.3564   -3.2078   -1.0559 H       1  LIG1        0.0293
     62 H           4.3754   -6.0269   -0.2953 H       1  LIG1        0.0248
     63 H           4.9119   -4.6501    0.6764 H       1  LIG1        0.0248
     64 H           4.0323   -4.3850   -0.8387 H       1  LIG1        0.0248
     65 H           2.9432   -7.5364   -1.4011 H       1  LIG1        0.0248
     66 H           1.5264   -7.0229   -2.3174 H       1  LIG1        0.0248
     67 H           1.5129   -8.5789   -1.4773 H       1  LIG1        0.0248
     68 H          -2.4180    0.1791   -0.7045 H       1  LIG1        0.0235
     69 H          -2.8211    0.5595   -2.3819 H       1  LIG1        0.0235
     70 H          -1.1434    0.6040   -1.8577 H       1  LIG1        0.0235
     71 H          -1.3138   -2.5719   -3.8700 H       1  LIG1        0.0235
     72 H          -0.5491   -0.9743   -3.7527 H       1  LIG1        0.0235
     73 H          -2.2247   -1.1090   -4.2619 H       1  LIG1        0.0235
     74 H          -3.3232   -3.1124   -2.3426 H       1  LIG1        0.0235
     75 H          -4.0620   -1.5441   -2.6788 H       1  LIG1        0.0235
     76 H          -3.7380   -2.0251   -1.0059 H       1  LIG1        0.0235
     77 HA          1.5728   -1.9929    1.1122 H       1  LIG1        0.0567
     78 H           2.1698    0.4919    2.7534 H       1  LIG1        0.0287
     79 H           2.7126   -1.1210    3.1133 H       1  LIG1        0.0287
     80 HA          0.9515    1.8912   -1.6813 H       1  LIG1        0.0952
     81 H           0.2905   -1.9316    3.0647 H       1  LIG1        0.0266
     82 H          -0.2054   -0.2542    2.9037 H       1  LIG1        0.0266
     83 H           1.6669    3.9054    0.4646 H       1  LIG1        0.0374
     84 H           0.0661    3.6761   -0.2153 H       1  LIG1        0.0374
     85 H          -0.3744   -0.7445    5.2130 H       1  LIG1        0.0263
     86 H           1.0721    0.2513    5.0703 H       1  LIG1        0.0263
     87 H           1.4796    6.5038   -0.2947 H       1  LIG1        0.0818
     88 H           1.0350   -2.8136    5.2775 H       1  LIG1        0.0230
     89 H           1.3991   -1.6926    6.5986 H       1  LIG1        0.0230
     90 H           2.4973   -1.8117    5.2213 H       1  LIG1        0.0230
     91 H           1.3428    2.4143   -3.5651 H       1  LIG1        0.0624
     92 H           2.2640    6.9846   -5.2533 H       1  LIG1        0.0638
     93 H           1.7789    2.7926   -5.9106 H       1  LIG1        0.0618
     94 H           2.2457    5.0594   -6.7647 H       1  LIG1        0.0618
     95 H           2.7758   10.3062   -4.4565 H       1  LIG1        0.0661
     96 H           2.0834   10.5647   -2.8427 H       1  LIG1        0.0661
     97 H           1.0124   10.3597   -4.2580 H       1  LIG1        0.0661
@<TRIPOS>BOND
     1     1    21    2
     2     2    24    2
     3     3    30    2
     4     4    34   ar
     5     5    34   ar
     6     6    44    1
     7     6    46    1
     8     7    44    2
     9     8    13    1
    10     8    14    1
    11     9    21   am
    12    10    24   am
    13    10    30   am
    14    12    39   ar
    15    12    38   ar
    16    12    44   am
    17    13    15    1
    18    13    22    1
    19    14    16    1
    20    14    23    1
    21    15    17    1
    22    16    17    1
    23    18     9    1
    24    18    24    1
    25    18    20    1
    26    19    20    1
    27    19    27    1
    28    19    26    1
    29    19    25    1
    30    21     8   am
    31    28    34    1
    32    28    29    1
    33    28    10    1
    34    29    32    1
    35    31    33    1
    36    31    11    1
    37    31    30    1
    38    32    36    1
    39    33    35    1
    40    35    38   ar
    41    35    37   ar
    42    36    40    1
    43    37    39   ar
    44    37    41   ar
    45    39    42   ar
    46    41    43   ar
    47    42    45   ar
    48    43    45   ar
    49     9    47    1
    50    11    48    1
    51    11    49    1
    52    11    50    1
    53    13    51    1
    54    14    52    1
    55    15    53    1
    56    15    54    1
    57    16    55    1
    58    16    56    1
    59    17    57    1
    60    17    58    1
    61    18    59    1
    62    20    60    1
    63    20    61    1
    64    22    62    1
    65    22    63    1
    66    22    64    1
    67    23    65    1
    68    23    66    1
    69    23    67    1
    70    25    68    1
    71    25    69    1
    72    25    70    1
    73    26    71    1
    74    26    72    1
    75    26    73    1
    76    27    74    1
    77    27    75    1
    78    27    76    1
    79    28    77    1
    80    29    78    1
    81    29    79    1
    82    31    80    1
    83    32    81    1
    84    32    82    1
    85    33    83    1
    86    33    84    1
    87    36    85    1
    88    36    86    1
    89    38    87    1
    90    40    88    1
    91    40    89    1
    92    40    90    1
    93    41    91    1
    94    42    92    1
    95    43    93    1
    96    45    94    1
    97    46    95    1
    98    46    96    1
    99    46    97    1
@<TRIPOS>MOLECULE
23693553
 97 99 0 0 0
SMALL
GASTEIGER

@<TRIPOS>ATOM
      1 O           3.1131   -0.0499   -3.2107 O.2     1  LIG1       -0.2526
      2 O           0.3119   -1.4433   -1.2181 O.2     1  LIG1       -0.2731
      3 O           0.7076    2.2421    0.1063 O.2     1  LIG1       -0.2689
      4 O           3.8653    0.6284    1.0235 O.co2   1  LIG1       -0.5479
      5 OXT         4.3171   -1.4361    1.8835 O.co2   1  LIG1       -0.5479
      6 O           1.9871    2.3596    8.2586 O.3     1  LIG1       -0.4515
      7 O           0.0085    2.0106    7.1061 O.2     1  LIG1       -0.2227
      8 N           2.2359   -0.9606   -5.1535 N.am    1  LIG1       -0.2801
      9 N           0.8744    0.0109   -3.4908 N.am    1  LIG1       -0.2879
     10 N           1.3948    0.0394    0.1689 N.am    1  LIG1       -0.2273
     11 N           0.2746    1.2592    2.8982 N.4     1  LIG1        0.2276
     12 N           1.7078    3.1935    6.1518 N.ar    1  LIG1       -0.2526
     13 C           3.5999   -1.4088   -5.5318 C.3     1  LIG1        0.0249
     14 C           1.0680   -1.2689   -6.0172 C.3     1  LIG1        0.0249
     15 C           3.6944   -2.3861   -6.7148 C.3     1  LIG1       -0.0344
     16 C           1.3204   -2.2351   -7.1847 C.3     1  LIG1       -0.0344
     17 C           2.4382   -3.2092   -6.8929 C.3     1  LIG1       -0.0497
     18 CA          0.7007    0.7381   -2.2129 C.3     1  LIG1        0.1019
     19 C          -0.8125    2.8410   -2.8582 C.3     1  LIG1       -0.0356
     20 C          -0.6881    1.4251   -2.2013 C.3     1  LIG1       -0.0210
     21 C           2.1394   -0.3201   -3.9089 C.2     1  LIG1        0.3033
     22 C           4.5479   -0.2308   -5.8104 C.3     1  LIG1       -0.0464
     23 C           0.4297   -0.0034   -6.5948 C.3     1  LIG1       -0.0464
     24 C           0.8161   -0.3192   -1.0637 C.2     1  LIG1        0.2429
     25 C           0.1920    3.8725   -2.3164 C.3     1  LIG1       -0.0600
     26 C          -0.6372    2.7713   -4.3796 C.3     1  LIG1       -0.0600
     27 C          -2.2330    3.3706   -2.5667 C.3     1  LIG1       -0.0600
     28 CA          2.1887   -1.0586    0.8257 C.3     1  LIG1        0.0730
     29 C           1.5611   -1.7089    2.0849 C.3     1  LIG1       -0.0286
     30 C           1.3049    1.3324    0.6910 C.2     1  LIG1        0.2708
     31 CA          1.5874    1.5867    2.1880 C.3     1  LIG1        0.0579
     32 C           0.1103   -2.1819    1.9786 C.3     1  LIG1       -0.0513
     33 C           1.9280    3.0751    2.4736 C.3     1  LIG1        0.0261
     34 C           3.6386   -0.6030    1.2305 C.2     1  LIG1        0.0626
     35 C           2.0784    3.3582    3.9478 C.ar    1  LIG1       -0.0158
     36 C          -0.4094   -2.7665    3.3050 C.3     1  LIG1       -0.0558
     37 C           3.2465    3.8026    4.6407 C.ar    1  LIG1        0.0038
     38 C           1.0907    3.2864    4.9101 C.ar    1  LIG1        0.0202
     39 C           2.9706    3.7592    6.0167 C.ar    1  LIG1        0.0598
     40 C          -0.4958   -1.7673    4.4538 C.3     1  LIG1       -0.0653
     41 C           4.5221    4.2313    4.2197 C.ar    1  LIG1       -0.0523
     42 C           3.9125    4.1790    6.9722 C.ar    1  LIG1       -0.0371
     43 C           5.4560    4.6628    5.1668 C.ar    1  LIG1       -0.0611
     44 C           1.1144    2.5150    7.2364 C.2     1  LIG1        0.4196
     45 C           5.1497    4.6451    6.5224 C.ar    1  LIG1       -0.0598
     46 C           1.5776    1.3772    9.2101 C.3     1  LIG1        0.0835
     47 H           0.2163   -0.7437   -3.6169 H       1  LIG1        0.1510
     48 H1          0.4387    1.1213    3.9003 H       1  LIG1        0.2002
     49 H2         -0.1287    0.3988    2.5213 H       1  LIG1        0.2002
     50 H3         -0.4027    2.0140    2.7435 H       1  LIG1        0.2002
     51 H           3.9876   -1.9435   -4.6533 H       1  LIG1        0.0498
     52 H           0.3303   -1.7582   -5.3696 H       1  LIG1        0.0498
     53 H           4.5600   -3.0457   -6.5782 H       1  LIG1        0.0283
     54 H           3.8857   -1.8342   -7.6461 H       1  LIG1        0.0283
     55 H           1.5710   -1.6730   -8.0956 H       1  LIG1        0.0283
     56 H           0.3959   -2.7785   -7.4162 H       1  LIG1        0.0283
     57 H           2.2226   -3.8079   -6.0018 H       1  LIG1        0.0266
     58 H           2.5602   -3.8974   -7.7369 H       1  LIG1        0.0266
     59 HA          1.5233    1.4498   -2.1094 H       1  LIG1        0.0595
     60 H          -1.0570    1.4925   -1.1711 H       1  LIG1        0.0293
     61 H          -1.4108    0.7567   -2.6929 H       1  LIG1        0.0293
     62 H           4.1554    0.4070   -6.6094 H       1  LIG1        0.0248
     63 H           5.5363   -0.5946   -6.1141 H       1  LIG1        0.0248
     64 H           4.7000    0.4013   -4.9319 H       1  LIG1        0.0248
     65 H           1.1706    0.6176   -7.1092 H       1  LIG1        0.0248
     66 H          -0.0239    0.5974   -5.8123 H       1  LIG1        0.0248
     67 H          -0.3687   -0.2494   -7.3038 H       1  LIG1        0.0248
     68 H           0.0264    4.0789   -1.2556 H       1  LIG1        0.0235
     69 H           0.0855    4.8314   -2.8385 H       1  LIG1        0.0235
     70 H           1.2292    3.5540   -2.4550 H       1  LIG1        0.0235
     71 H          -1.3440    2.0620   -4.8219 H       1  LIG1        0.0235
     72 H           0.3822    2.4792   -4.6489 H       1  LIG1        0.0235
     73 H          -0.8237    3.7458   -4.8464 H       1  LIG1        0.0235
     74 H          -2.9977    2.6948   -2.9651 H       1  LIG1        0.0235
     75 H          -2.3909    4.3568   -3.0180 H       1  LIG1        0.0235
     76 H          -2.4025    3.4703   -1.4884 H       1  LIG1        0.0235
     77 HA          2.3368   -1.8530    0.0817 H       1  LIG1        0.0567
     78 H           1.6691   -1.0400    2.9405 H       1  LIG1        0.0287
     79 H           2.1618   -2.5901    2.3518 H       1  LIG1        0.0287
     80 HA          2.3180    0.9398    2.6594 H       1  LIG1        0.0952
     81 H           0.0484   -2.9639    1.2129 H       1  LIG1        0.0266
     82 H          -0.5523   -1.3746    1.6544 H       1  LIG1        0.0266
     83 H           1.1496    3.7387    2.0747 H       1  LIG1        0.0374
     84 H           2.8517    3.3331    1.9424 H       1  LIG1        0.0374
     85 H           0.2283   -3.6036    3.6130 H       1  LIG1        0.0263
     86 H          -1.4109   -3.1786    3.1354 H       1  LIG1        0.0263
     87 H           0.0262    3.1025    4.8504 H       1  LIG1        0.0818
     88 H           0.4880   -1.3839    4.7401 H       1  LIG1        0.0230
     89 H          -0.9222   -2.2486    5.3405 H       1  LIG1        0.0230
     90 H          -1.1388   -0.9211    4.1948 H       1  LIG1        0.0230
     91 H           4.7819    4.2542    3.1639 H       1  LIG1        0.0624
     92 H           3.6983    4.1560    8.0365 H       1  LIG1        0.0638
     93 H           6.4307    5.0143    4.8362 H       1  LIG1        0.0618
     94 H           5.8886    4.9853    7.2447 H       1  LIG1        0.0618
     95 H           2.3342    1.3290    9.9975 H       1  LIG1        0.0661
     96 H           1.5181    0.3935    8.7315 H       1  LIG1        0.0661
     97 H           0.6164    1.6442    9.6592 H       1  LIG1        0.0661
@<TRIPOS>BOND
     1     1    21    2
     2     2    24    2
     3     3    30    2
     4     4    34   ar
     5     5    34   ar
     6     6    44    1
     7     6    46    1
     8     7    44    2
     9     8    13    1
    10     8    14    1
    11     9    21   am
    12    10    24   am
    13    10    30   am
    14    12    39   ar
    15    12    38   ar
    16    12    44   am
    17    13    15    1
    18    13    22    1
    19    14    16    1
    20    14    23    1
    21    15    17    1
    22    16    17    1
    23    18     9    1
    24    18    24    1
    25    18    20    1
    26    19    20    1
    27    19    27    1
    28    19    26    1
    29    19    25    1
    30    21     8   am
    31    28    34    1
    32    28    29    1
    33    28    10    1
    34    29    32    1
    35    31    33    1
    36    31    11    1
    37    31    30    1
    38    32    36    1
    39    33    35    1
    40    35    38   ar
    41    35    37   ar
    42    36    40    1
    43    37    39   ar
    44    37    41   ar
    45    39    42   ar
    46    41    43   ar
    47    42    45   ar
    48    43    45   ar
    49     9    47    1
    50    11    48    1
    51    11    49    1
    52    11    50    1
    53    13    51    1
    54    14    52    1
    55    15    53    1
    56    15    54    1
    57    16    55    1
    58    16    56    1
    59    17    57    1
    60    17    58    1
    61    18    59    1
    62    20    60    1
    63    20    61    1
    64    22    62    1
    65    22    63    1
    66    22    64    1
    67    23    65    1
    68    23    66    1
    69    23    67    1
    70    25    68    1
    71    25    69    1
    72    25    70    1
    73    26    71    1
    74    26    72    1
    75    26    73    1
    76    27    74    1
    77    27    75    1
    78    27    76    1
    79    28    77    1
    80    29    78    1
    81    29    79    1
    82    31    80    1
    83    32    81    1
    84    32    82    1
    85    33    83    1
    86    33    84    1
    87    36    85    1
    88    36    86    1
    89    38    87    1
    90    40    88    1
    91    40    89    1
    92    40    90    1
    93    41    91    1
    94    42    92    1
    95    43    93    1
    96    45    94    1
    97    46    95    1
    98    46    96    1
    99    46    97    1
@<TRIPOS>MOLECULE
23693553
 97 99 0 0 0
SMALL
GASTEIGER

@<TRIPOS>ATOM
      1 O           0.5430   -4.4359    0.5127 O.2     1  LIG1       -0.2526
      2 O           0.2737    0.0290   -1.9542 O.2     1  LIG1       -0.2731
      3 O           0.5076    1.3837    1.6069 O.2     1  LIG1       -0.2689
      4 O           4.0958   -1.6961    1.3866 O.co2   1  LIG1       -0.5479
      5 OXT         3.3825   -0.6718   -0.5177 O.co2   1  LIG1       -0.5479
      6 O           4.6373    6.3423    4.3023 O.3     1  LIG1       -0.4515
      7 O           3.0153    7.4706    3.1007 O.2     1  LIG1       -0.2227
      8 N           2.7076   -4.9361   -0.0645 N.am    1  LIG1       -0.2801
      9 N           1.4656   -3.2804   -1.2056 N.am    1  LIG1       -0.2879
     10 N           0.9239   -0.3887    0.1958 N.am    1  LIG1       -0.2273
     11 N           2.7520    1.6080   -1.2146 N.4     1  LIG1        0.2276
     12 N           3.5668    5.3103    2.5626 N.ar    1  LIG1       -0.2526
     13 C           3.9359   -4.6718   -0.8532 C.3     1  LIG1        0.0249
     14 C           2.7520   -5.8128    1.1337 C.3     1  LIG1        0.0249
     15 C           5.2511   -5.2069   -0.2668 C.3     1  LIG1       -0.0344
     16 C           4.1390   -6.2581    1.6160 C.3     1  LIG1       -0.0344
     17 C           5.2209   -5.2698    1.2447 C.3     1  LIG1       -0.0497
     18 CA          0.3689   -2.3331   -1.4711 C.3     1  LIG1        0.1019
     19 C          -1.8341   -3.7935   -1.9101 C.3     1  LIG1       -0.0356
     20 C          -1.0754   -2.7245   -1.0635 C.3     1  LIG1       -0.0210
     21 C           1.5060   -4.2394   -0.2252 C.2     1  LIG1        0.3033
     22 C           3.7927   -5.1923   -2.2894 C.3     1  LIG1       -0.0464
     23 C           1.8739   -7.0623    0.9578 C.3     1  LIG1       -0.0464
     24 C           0.5818   -0.8124   -1.0926 C.2     1  LIG1        0.2429
     25 C          -1.9942   -3.3317   -3.3695 C.3     1  LIG1       -0.0600
     26 C          -1.1666   -5.1757   -1.9099 C.3     1  LIG1       -0.0600
     27 C          -3.2438   -3.9516   -1.2976 C.3     1  LIG1       -0.0600
     28 CA          1.7224   -1.2737    1.0801 C.3     1  LIG1        0.0730
     29 C           1.5218   -1.1400    2.5970 C.3     1  LIG1       -0.0286
     30 C           0.9664    0.9744    0.5369 C.2     1  LIG1        0.2708
     31 CA          1.4901    1.9949   -0.5053 C.3     1  LIG1        0.0579
     32 C           0.0791   -1.4871    2.9997 C.3     1  LIG1       -0.0513
     33 C           1.5837    3.4334    0.0395 C.3     1  LIG1        0.0261
     34 C           3.2140   -1.2496    0.6182 C.2     1  LIG1        0.0626
     35 C           2.5954    3.8640    1.0786 C.ar    1  LIG1       -0.0158
     36 C          -0.0874   -1.7607    4.4941 C.3     1  LIG1       -0.0558
     37 C           3.6801    3.2042    1.7416 C.ar    1  LIG1        0.0038
     38 C           2.5895    5.1497    1.5916 C.ar    1  LIG1        0.0202
     39 C           4.3071    4.1276    2.5996 C.ar    1  LIG1        0.0598
     40 C           0.5094   -3.0959    4.9187 C.3     1  LIG1       -0.0653
     41 C           4.2159    1.9027    1.7081 C.ar    1  LIG1       -0.0523
     42 C           5.4683    3.7802    3.3277 C.ar    1  LIG1       -0.0371
     43 C           5.3515    1.5490    2.4384 C.ar    1  LIG1       -0.0611
     44 C           3.7068    6.4892    3.3310 C.2     1  LIG1        0.4196
     45 C           5.9816    2.4875    3.2299 C.ar    1  LIG1       -0.0598
     46 C           4.8036    7.4553    5.1825 C.3     1  LIG1        0.0835
     47 H           2.3541   -2.9893   -1.5811 H       1  LIG1        0.1510
     48 H1          2.6444    1.6035   -2.2305 H       1  LIG1        0.2002
     49 H2          3.0220    0.6088   -0.9901 H       1  LIG1        0.2002
     50 H3          3.5776    2.1478   -0.9395 H       1  LIG1        0.2002
     51 H           4.0540   -3.5838   -0.8936 H       1  LIG1        0.0498
     52 H           2.3222   -5.2208    1.9548 H       1  LIG1        0.0498
     53 H           6.0829   -4.5732   -0.5982 H       1  LIG1        0.0283
     54 H           5.4634   -6.2107   -0.6590 H       1  LIG1        0.0283
     55 H           4.3936   -7.2380    1.1900 H       1  LIG1        0.0283
     56 H           4.1183   -6.4018    2.7035 H       1  LIG1        0.0283
     57 H           5.0260   -4.2859    1.6830 H       1  LIG1        0.0266
     58 H           6.1883   -5.6157    1.6250 H       1  LIG1        0.0266
     59 HA          0.3931   -2.2941   -2.5682 H       1  LIG1        0.0595
     60 H          -1.6851   -1.8093   -1.1197 H       1  LIG1        0.0293
     61 H          -1.1150   -2.9871   -0.0016 H       1  LIG1        0.0293
     62 H           3.6488   -6.2784   -2.2967 H       1  LIG1        0.0248
     63 H           4.6896   -4.9620   -2.8749 H       1  LIG1        0.0248
     64 H           2.9389   -4.7505   -2.8100 H       1  LIG1        0.0248
     65 H           2.2241   -7.6695    0.1164 H       1  LIG1        0.0248
     66 H           0.8264   -6.8149    0.7652 H       1  LIG1        0.0248
     67 H           1.8976   -7.6803    1.8624 H       1  LIG1        0.0248
     68 H          -2.4323   -2.3294   -3.4238 H       1  LIG1        0.0235
     69 H          -2.6521   -4.0104   -3.9255 H       1  LIG1        0.0235
     70 H          -1.0354   -3.3132   -3.8970 H       1  LIG1        0.0235
     71 H          -1.1026   -5.5900   -0.8994 H       1  LIG1        0.0235
     72 H          -0.1640   -5.1461   -2.3456 H       1  LIG1        0.0235
     73 H          -1.7489   -5.8908   -2.5036 H       1  LIG1        0.0235
     74 H          -3.1848   -4.2737   -0.2514 H       1  LIG1        0.0235
     75 H          -3.8348   -4.6974   -1.8410 H       1  LIG1        0.0235
     76 H          -3.7967   -3.0058   -1.3249 H       1  LIG1        0.0235
     77 HA          1.3858   -2.2741    0.8932 H       1  LIG1        0.0567
     78 H           1.7973   -0.1457    2.9629 H       1  LIG1        0.0287
     79 H           2.2095   -1.8328    3.0945 H       1  LIG1        0.0287
     80 HA          0.7305    2.0645   -1.2899 H       1  LIG1        0.0952
     81 H          -0.2719   -2.3635    2.4410 H       1  LIG1        0.0266
     82 H          -0.5835   -0.6605    2.7207 H       1  LIG1        0.0266
     83 H           0.5929    3.7020    0.4355 H       1  LIG1        0.0374
     84 H           1.7354    4.0961   -0.8262 H       1  LIG1        0.0374
     85 H          -1.1595   -1.7779    4.7241 H       1  LIG1        0.0263
     86 H           0.3545   -0.9490    5.0821 H       1  LIG1        0.0263
     87 H           1.9241    5.9799    1.3826 H       1  LIG1        0.0818
     88 H           0.1093   -3.9158    4.3128 H       1  LIG1        0.0230
     89 H           0.2661   -3.3010    5.9658 H       1  LIG1        0.0230
     90 H           1.5988   -3.1008    4.8239 H       1  LIG1        0.0230
     91 H           3.7543    1.1235    1.1320 H       1  LIG1        0.0624
     92 H           5.9762    4.4884    3.9747 H       1  LIG1        0.0638
     93 H           5.7240    0.5259    2.3848 H       1  LIG1        0.0618
     94 H           6.8669    2.2097    3.7966 H       1  LIG1        0.0618
     95 H           5.0287    7.0639    6.1788 H       1  LIG1        0.0661
     96 H           3.9083    8.0797    5.2565 H       1  LIG1        0.0661
     97 H           5.6541    8.0525    4.8430 H       1  LIG1        0.0661
@<TRIPOS>BOND
     1     1    21    2
     2     2    24    2
     3     3    30    2
     4     4    34   ar
     5     5    34   ar
     6     6    44    1
     7     6    46    1
     8     7    44    2
     9     8    13    1
    10     8    14    1
    11     9    21   am
    12    10    24   am
    13    10    30   am
    14    12    39   ar
    15    12    38   ar
    16    12    44   am
    17    13    15    1
    18    13    22    1
    19    14    16    1
    20    14    23    1
    21    15    17    1
    22    16    17    1
    23    18     9    1
    24    18    24    1
    25    18    20    1
    26    19    20    1
    27    19    27    1
    28    19    26    1
    29    19    25    1
    30    21     8   am
    31    28    34    1
    32    28    29    1
    33    28    10    1
    34    29    32    1
    35    31    33    1
    36    31    11    1
    37    31    30    1
    38    32    36    1
    39    33    35    1
    40    35    38   ar
    41    35    37   ar
    42    36    40    1
    43    37    39   ar
    44    37    41   ar
    45    39    42   ar
    46    41    43   ar
    47    42    45   ar
    48    43    45   ar
    49     9    47    1
    50    11    48    1
    51    11    49    1
    52    11    50    1
    53    13    51    1
    54    14    52    1
    55    15    53    1
    56    15    54    1
    57    16    55    1
    58    16    56    1
    59    17    57    1
    60    17    58    1
    61    18    59    1
    62    20    60    1
    63    20    61    1
    64    22    62    1
    65    22    63    1
    66    22    64    1
    67    23    65    1
    68    23    66    1
    69    23    67    1
    70    25    68    1
    71    25    69    1
    72    25    70    1
    73    26    71    1
    74    26    72    1
    75    26    73    1
    76    27    74    1
    77    27    75    1
    78    27    76    1
    79    28    77    1
    80    29    78    1
    81    29    79    1
    82    31    80    1
    83    32    81    1
    84    32    82    1
    85    33    83    1
    86    33    84    1
    87    36    85    1
    88    36    86    1
    89    38    87    1
    90    40    88    1
    91    40    89    1
    92    40    90    1
    93    41    91    1
    94    42    92    1
    95    43    93    1
    96    45    94    1
    97    46    95    1
    98    46    96    1
    99    46    97    1
@<TRIPOS>MOLECULE
23693553
 97 99 0 0 0
SMALL
GASTEIGER

@<TRIPOS>ATOM
      1 O           0.4025   -4.3861    0.4617 O.2     1  LIG1       -0.2526
      2 O           0.6605    0.0890   -2.1211 O.2     1  LIG1       -0.2731
      3 O           0.5943    1.5877    1.4257 O.2     1  LIG1       -0.2689
      4 O           4.2998   -1.6956    1.0819 O.co2   1  LIG1       -0.5479
      5 OXT         3.5358   -0.4944   -0.6869 O.co2   1  LIG1       -0.5479
      6 O           3.8948    6.0048    4.8169 O.3     1  LIG1       -0.4515
      7 O           2.3217    7.1562    3.5761 O.2     1  LIG1       -0.2227
      8 N           2.5710   -4.8725   -0.1086 N.am    1  LIG1       -0.2801
      9 N           1.3676   -3.1466   -1.1766 N.am    1  LIG1       -0.2879
     10 N           1.0917   -0.2275    0.1141 N.am    1  LIG1       -0.2273
     11 N           2.8059    1.6940   -1.4777 N.4     1  LIG1        0.2276
     12 N           3.2318    5.2088    2.7732 N.ar    1  LIG1       -0.2526
     13 C           3.7892   -4.6471   -0.9223 C.3     1  LIG1        0.0249
     14 C           2.5944   -5.8252    1.0281 C.3     1  LIG1        0.0249
     15 C           5.0981   -5.1981   -0.3380 C.3     1  LIG1       -0.0344
     16 C           3.9773   -6.2447    1.5489 C.3     1  LIG1       -0.0344
     17 C           5.0639   -5.2612    1.1742 C.3     1  LIG1       -0.0497
     18 CA          0.2872   -2.1637   -1.3932 C.3     1  LIG1        0.1019
     19 C          -2.3426   -1.6723   -1.2047 C.3     1  LIG1       -0.0356
     20 C          -1.0844   -2.4809   -0.7563 C.3     1  LIG1       -0.0210
     21 C           1.3787   -4.1574   -0.2493 C.2     1  LIG1        0.3033
     22 C           3.6093   -5.1875   -2.3460 C.3     1  LIG1       -0.0464
     23 C           1.7655   -7.0826    0.7296 C.3     1  LIG1       -0.0464
     24 C           0.7228   -0.6887   -1.1543 C.2     1  LIG1        0.2429
     25 C          -2.3884   -0.2727   -0.5680 C.3     1  LIG1       -0.0600
     26 C          -2.4411   -1.5457   -2.7327 C.3     1  LIG1       -0.0600
     27 C          -3.5876   -2.4440   -0.7080 C.3     1  LIG1       -0.0600
     28 CA          1.9457   -1.0857    0.9915 C.3     1  LIG1        0.0730
     29 C           1.9874   -0.7583    2.4952 C.3     1  LIG1       -0.0286
     30 C           1.1113    1.1453    0.3955 C.2     1  LIG1        0.2708
     31 CA          1.6081    2.1300   -0.6928 C.3     1  LIG1        0.0579
     32 C           0.6591   -1.0650    3.1979 C.3     1  LIG1       -0.0513
     33 C           1.7774    3.5790   -0.2168 C.3     1  LIG1        0.0261
     34 C           3.4058   -1.1209    0.4241 C.2     1  LIG1        0.0626
     35 C           2.6251    3.9443    0.9729 C.ar    1  LIG1       -0.0158
     36 C           0.7245   -0.8236    4.7085 C.3     1  LIG1       -0.0558
     37 C           3.7351    3.3184    1.6265 C.ar    1  LIG1        0.0038
     38 C           2.4044    5.1192    1.6672 C.ar    1  LIG1        0.0202
     39 C           4.1167    4.1302    2.7136 C.ar    1  LIG1        0.0598
     40 C           1.5483   -1.8693    5.4478 C.3     1  LIG1       -0.0653
     41 C           4.4713    2.1332    1.4188 C.ar    1  LIG1       -0.0523
     42 C           5.2185    3.7915    3.5302 C.ar    1  LIG1       -0.0371
     43 C           5.5351    1.7771    2.2515 C.ar    1  LIG1       -0.0611
     44 C           3.1083    6.2314    3.7389 C.2     1  LIG1        0.4196
     45 C           5.9129    2.6070    3.2890 C.ar    1  LIG1       -0.0598
     46 C           3.6996    6.9354    5.8805 C.3     1  LIG1        0.0835
     47 H           2.2347   -2.9321   -1.6420 H       1  LIG1        0.1510
     48 H1          2.5535    1.4862   -2.4485 H       1  LIG1        0.2002
     49 H2          3.1450    0.7480   -1.1492 H       1  LIG1        0.2002
     50 H3          3.6272    2.2986   -1.4206 H       1  LIG1        0.2002
     51 H           3.9287   -3.5637   -0.9891 H       1  LIG1        0.0498
     52 H           2.1053   -5.3076    1.8658 H       1  LIG1        0.0498
     53 H           5.9369   -4.5738   -0.6691 H       1  LIG1        0.0283
     54 H           5.2984   -6.2042   -0.7307 H       1  LIG1        0.0283
     55 H           4.2480   -7.2339    1.1558 H       1  LIG1        0.0283
     56 H           3.9368   -6.3610    2.6391 H       1  LIG1        0.0283
     57 H           4.8710   -4.2769    1.6122 H       1  LIG1        0.0266
     58 H           6.0295   -5.6087    1.5574 H       1  LIG1        0.0266
     59 HA          0.1535   -2.2362   -2.4809 H       1  LIG1        0.0595
     60 H          -1.0039   -2.4035    0.3357 H       1  LIG1        0.0293
     61 H          -1.3010   -3.5339   -0.9842 H       1  LIG1        0.0293
     62 H           3.4462   -6.2708   -2.3347 H       1  LIG1        0.0248
     63 H           4.4978   -4.9816   -2.9530 H       1  LIG1        0.0248
     64 H           2.7518   -4.7366   -2.8532 H       1  LIG1        0.0248
     65 H           2.1815   -7.6319   -0.1214 H       1  LIG1        0.0248
     66 H           0.7259   -6.8443    0.4870 H       1  LIG1        0.0248
     67 H           1.7530   -7.7508    1.5980 H       1  LIG1        0.0248
     68 H          -2.2065   -0.3211    0.5113 H       1  LIG1        0.0235
     69 H          -3.3703    0.1929   -0.7147 H       1  LIG1        0.0235
     70 H          -1.6568    0.4086   -1.0069 H       1  LIG1        0.0235
     71 H          -2.3824   -2.5275   -3.2153 H       1  LIG1        0.0235
     72 H          -1.6436   -0.9190   -3.1431 H       1  LIG1        0.0235
     73 H          -3.3918   -1.0871   -3.0290 H       1  LIG1        0.0235
     74 H          -3.6420   -3.4418   -1.1585 H       1  LIG1        0.0235
     75 H          -4.5136   -1.9174   -0.9664 H       1  LIG1        0.0235
     76 H          -3.5668   -2.5681    0.3806 H       1  LIG1        0.0235
     77 HA          1.5622   -2.0956    0.9394 H       1  LIG1        0.0567
     78 H           2.2857    0.2802    2.6719 H       1  LIG1        0.0287
     79 H           2.7654   -1.3690    2.9672 H       1  LIG1        0.0287
     80 HA          0.8023    2.1967   -1.4334 H       1  LIG1        0.0952
     81 H           0.3662   -2.1049    3.0071 H       1  LIG1        0.0266
     82 H          -0.1346   -0.4370    2.7801 H       1  LIG1        0.0266
     83 H           0.7634    3.9488    0.0028 H       1  LIG1        0.0374
     84 H           2.1252    4.1881   -1.0633 H       1  LIG1        0.0374
     85 H          -0.2956   -0.8439    5.1095 H       1  LIG1        0.0263
     86 H           1.1281    0.1747    4.9134 H       1  LIG1        0.0263
     87 H           1.6633    5.8944    1.5064 H       1  LIG1        0.0818
     88 H           1.1594   -2.8759    5.2629 H       1  LIG1        0.0230
     89 H           1.5092   -1.6853    6.5262 H       1  LIG1        0.0230
     90 H           2.5995   -1.8463    5.1470 H       1  LIG1        0.0230
     91 H           4.2375    1.4446    0.6252 H       1  LIG1        0.0624
     92 H           5.5386    4.4216    4.3543 H       1  LIG1        0.0638
     93 H           6.0569    0.8360    2.0802 H       1  LIG1        0.0618
     94 H           6.7472    2.3278    3.9281 H       1  LIG1        0.0618
     95 H           4.2743    6.5882    6.7435 H       1  LIG1        0.0661
     96 H           2.6442    6.9823    6.1685 H       1  LIG1        0.0661
     97 H           4.0665    7.9240    5.5897 H       1  LIG1        0.0661
@<TRIPOS>BOND
     1     1    21    2
     2     2    24    2
     3     3    30    2
     4     4    34   ar
     5     5    34   ar
     6     6    44    1
     7     6    46    1
     8     7    44    2
     9     8    13    1
    10     8    14    1
    11     9    21   am
    12    10    24   am
    13    10    30   am
    14    12    39   ar
    15    12    38   ar
    16    12    44   am
    17    13    15    1
    18    13    22    1
    19    14    16    1
    20    14    23    1
    21    15    17    1
    22    16    17    1
    23    18     9    1
    24    18    24    1
    25    18    20    1
    26    19    20    1
    27    19    27    1
    28    19    26    1
    29    19    25    1
    30    21     8   am
    31    28    34    1
    32    28    29    1
    33    28    10    1
    34    29    32    1
    35    31    33    1
    36    31    11    1
    37    31    30    1
    38    32    36    1
    39    33    35    1
    40    35    38   ar
    41    35    37   ar
    42    36    40    1
    43    37    39   ar
    44    37    41   ar
    45    39    42   ar
    46    41    43   ar
    47    42    45   ar
    48    43    45   ar
    49     9    47    1
    50    11    48    1
    51    11    49    1
    52    11    50    1
    53    13    51    1
    54    14    52    1
    55    15    53    1
    56    15    54    1
    57    16    55    1
    58    16    56    1
    59    17    57    1
    60    17    58    1
    61    18    59    1
    62    20    60    1
    63    20    61    1
    64    22    62    1
    65    22    63    1
    66    22    64    1
    67    23    65    1
    68    23    66    1
    69    23    67    1
    70    25    68    1
    71    25    69    1
    72    25    70    1
    73    26    71    1
    74    26    72    1
    75    26    73    1
    76    27    74    1
    77    27    75    1
    78    27    76    1
    79    28    77    1
    80    29    78    1
    81    29    79    1
    82    31    80    1
    83    32    81    1
    84    32    82    1
    85    33    83    1
    86    33    84    1
    87    36    85    1
    88    36    86    1
    89    38    87    1
    90    40    88    1
    91    40    89    1
    92    40    90    1
    93    41    91    1
    94    42    92    1
    95    43    93    1
    96    45    94    1
    97    46    95    1
    98    46    96    1
    99    46    97    1
@<TRIPOS>MOLECULE
23693553
 97 99 0 0 0
SMALL
GASTEIGER

@<TRIPOS>ATOM
      1 O           0.0986   -4.9193   -1.6677 O.2     1  LIG1       -0.2526
      2 O           1.4350   -0.0637   -2.1840 O.2     1  LIG1       -0.2731
      3 O           0.5968    1.6313    1.4166 O.2     1  LIG1       -0.2689
      4 O           4.0920   -1.9638    0.6389 O.co2   1  LIG1       -0.5479
      5 OXT         3.8095    0.2511    0.1398 O.co2   1  LIG1       -0.5479
      6 O           2.4828    8.3836   -3.7751 O.3     1  LIG1       -0.4515
      7 O           3.1341    8.3716   -1.5552 O.2     1  LIG1       -0.2227
      8 N           1.6685   -5.4304   -0.0557 N.am    1  LIG1       -0.2801
      9 N           1.2759   -3.2201   -0.7231 N.am    1  LIG1       -0.2879
     10 N           1.1593   -0.1895    0.1101 N.am    1  LIG1       -0.2273
     11 N           2.8940    2.1263   -1.0968 N.4     1  LIG1        0.2276
     12 N           2.0553    6.5622   -2.4572 N.ar    1  LIG1       -0.2526
     13 C           2.7884   -5.0330    0.8295 C.3     1  LIG1        0.0249
     14 C           1.2886   -6.8534   -0.1441 C.3     1  LIG1        0.0249
     15 C           2.9141   -5.8538    2.1262 C.3     1  LIG1       -0.0344
     16 C           1.6417   -7.6821    1.1000 C.3     1  LIG1       -0.0344
     17 C           1.7555   -6.8120    2.3379 C.3     1  LIG1       -0.0497
     18 CA          0.5379   -2.1633   -1.4218 C.3     1  LIG1        0.1019
     19 C          -1.9341   -1.4237   -2.1121 C.3     1  LIG1       -0.0356
     20 C          -0.9834   -2.1599   -1.1059 C.3     1  LIG1       -0.0210
     21 C           0.9726   -4.5495   -0.8864 C.2     1  LIG1        0.3033
     22 C           4.1117   -5.0270    0.0593 C.3     1  LIG1       -0.0464
     23 C           1.8513   -7.5220   -1.4020 C.3     1  LIG1       -0.0464
     24 C           1.1175   -0.7334   -1.1930 C.2     1  LIG1        0.2429
     25 C          -2.0938    0.0599   -1.7383 C.3     1  LIG1       -0.0600
     26 C          -1.4713   -1.5247   -3.5756 C.3     1  LIG1       -0.0600
     27 C          -3.3319   -2.0782   -2.0215 C.3     1  LIG1       -0.0600
     28 CA          1.9799   -0.9422    1.0947 C.3     1  LIG1        0.0730
     29 C           1.9811   -0.5633    2.5846 C.3     1  LIG1       -0.0286
     30 C           1.0412    1.1911    0.3522 C.2     1  LIG1        0.2708
     31 CA          1.4330    2.1838   -0.7688 C.3     1  LIG1        0.0579
     32 C           0.6585   -0.9208    3.2746 C.3     1  LIG1       -0.0513
     33 C           1.0532    3.6285   -0.3893 C.3     1  LIG1        0.0261
     34 C           3.4716   -0.8730    0.6396 C.2     1  LIG1        0.0626
     35 C           1.3313    4.6491   -1.4608 C.ar    1  LIG1       -0.0158
     36 C           0.7184   -0.7513    4.7953 C.3     1  LIG1       -0.0558
     37 C           0.9290    4.6313   -2.8331 C.ar    1  LIG1        0.0038
     38 C           2.0223    5.8265   -1.2771 C.ar    1  LIG1        0.0202
     39 C           1.4406    5.7858   -3.4483 C.ar    1  LIG1        0.0598
     40 C           1.5120   -1.8521    5.4868 C.3     1  LIG1       -0.0653
     41 C           0.1786    3.7241   -3.6171 C.ar    1  LIG1       -0.0523
     42 C           1.2667    6.0001   -4.8320 C.ar    1  LIG1       -0.0371
     43 C           0.0109    3.9404   -4.9859 C.ar    1  LIG1       -0.0611
     44 C           2.6201    7.8568   -2.5375 C.2     1  LIG1        0.4196
     45 C           0.5593    5.0612   -5.5861 C.ar    1  LIG1       -0.0598
     46 C           2.9858    9.7098   -3.9604 C.3     1  LIG1        0.0835
     47 H           2.2754   -3.0659   -0.6189 H       1  LIG1        0.1510
     48 H1          3.0758    2.1329   -2.1018 H       1  LIG1        0.2002
     49 H2          3.3053    1.2148   -0.7486 H       1  LIG1        0.2002
     50 H3          3.4711    2.8119   -0.6074 H       1  LIG1        0.2002
     51 H           2.5921   -4.0114    1.1608 H       1  LIG1        0.0498
     52 H           0.1937   -6.8742   -0.2313 H       1  LIG1        0.0498
     53 H           2.9879   -5.1734    2.9841 H       1  LIG1        0.0283
     54 H           3.8514   -6.4257    2.1260 H       1  LIG1        0.0283
     55 H           2.5903   -8.2141    0.9511 H       1  LIG1        0.0283
     56 H           0.8795   -8.4559    1.2528 H       1  LIG1        0.0283
     57 H           0.8241   -6.2625    2.5173 H       1  LIG1        0.0266
     58 H           1.9444   -7.4325    3.2207 H       1  LIG1        0.0266
     59 HA          0.6930   -2.3977   -2.4808 H       1  LIG1        0.0595
     60 H          -1.1460   -1.7600   -0.0956 H       1  LIG1        0.0293
     61 H          -1.3333   -3.1954   -1.0403 H       1  LIG1        0.0293
     62 H           4.3869   -6.0350   -0.2653 H       1  LIG1        0.0248
     63 H           4.9235   -4.6442    0.6871 H       1  LIG1        0.0248
     64 H           4.0517   -4.4011   -0.8365 H       1  LIG1        0.0248
     65 H           2.9455   -7.5227   -1.3970 H       1  LIG1        0.0248
     66 H           1.5289   -7.0065   -2.3119 H       1  LIG1        0.0248
     67 H           1.5122   -8.5614   -1.4702 H       1  LIG1        0.0248
     68 H          -2.4366    0.1739   -0.7037 H       1  LIG1        0.0235
     69 H          -2.8318    0.5511   -2.3837 H       1  LIG1        0.0235
     70 H          -1.1588    0.6119   -1.8473 H       1  LIG1        0.0235
     71 H          -1.2977   -2.5668   -3.8662 H       1  LIG1        0.0235
     72 H          -0.5502   -0.9607   -3.7532 H       1  LIG1        0.0235
     73 H          -2.2255   -1.1144   -4.2576 H       1  LIG1        0.0235
     74 H          -3.2965   -3.1280   -2.3344 H       1  LIG1        0.0235
     75 H          -4.0536   -1.5685   -2.6714 H       1  LIG1        0.0235
     76 H          -3.7213   -2.0437   -0.9985 H       1  LIG1        0.0235
     77 HA          1.6522   -1.9761    1.0781 H       1  LIG1        0.0567
     78 H           2.2329    0.4906    2.7445 H       1  LIG1        0.0287
     79 H           2.7871   -1.1265    3.0733 H       1  LIG1        0.0287
     80 HA          0.8846    1.9315   -1.6706 H       1  LIG1        0.0952
     81 H           0.3757   -1.9539    3.0374 H       1  LIG1        0.0266
     82 H          -0.1417   -0.2833    2.8845 H       1  LIG1        0.0266
     83 H           1.5861    3.9165    0.5278 H       1  LIG1        0.0374
     84 H          -0.0163    3.6765   -0.1468 H       1  LIG1        0.0374
     85 H          -0.3050   -0.7697    5.1883 H       1  LIG1        0.0263
     86 H           1.1417    0.2264    5.0514 H       1  LIG1        0.0263
     87 H           2.4713    6.2489   -0.3846 H       1  LIG1        0.0818
     88 H           1.1000   -2.8390    5.2511 H       1  LIG1        0.0230
     89 H           1.4692   -1.7209    6.5730 H       1  LIG1        0.0230
     90 H           2.5650   -1.8407    5.1928 H       1  LIG1        0.0230
     91 H          -0.2856    2.8444   -3.1815 H       1  LIG1        0.0624
     92 H           1.6653    6.8754   -5.3355 H       1  LIG1        0.0638
     93 H          -0.5538    3.2266   -5.5812 H       1  LIG1        0.0618
     94 H           0.4252    5.2215   -6.6540 H       1  LIG1        0.0618
     95 H           3.5903    9.7175   -4.8717 H       1  LIG1        0.0661
     96 H           3.6033   10.0659   -3.1311 H       1  LIG1        0.0661
     97 H           2.1376   10.3853   -4.1004 H       1  LIG1        0.0661
@<TRIPOS>BOND
     1     1    21    2
     2     2    24    2
     3     3    30    2
     4     4    34   ar
     5     5    34   ar
     6     6    44    1
     7     6    46    1
     8     7    44    2
     9     8    13    1
    10     8    14    1
    11     9    21   am
    12    10    24   am
    13    10    30   am
    14    12    39   ar
    15    12    38   ar
    16    12    44   am
    17    13    15    1
    18    13    22    1
    19    14    16    1
    20    14    23    1
    21    15    17    1
    22    16    17    1
    23    18     9    1
    24    18    24    1
    25    18    20    1
    26    19    20    1
    27    19    27    1
    28    19    26    1
    29    19    25    1
    30    21     8   am
    31    28    34    1
    32    28    29    1
    33    28    10    1
    34    29    32    1
    35    31    33    1
    36    31    11    1
    37    31    30    1
    38    32    36    1
    39    33    35    1
    40    35    38   ar
    41    35    37   ar
    42    36    40    1
    43    37    39   ar
    44    37    41   ar
    45    39    42   ar
    46    41    43   ar
    47    42    45   ar
    48    43    45   ar
    49     9    47    1
    50    11    48    1
    51    11    49    1
    52    11    50    1
    53    13    51    1
    54    14    52    1
    55    15    53    1
    56    15    54    1
    57    16    55    1
    58    16    56    1
    59    17    57    1
    60    17    58    1
    61    18    59    1
    62    20    60    1
    63    20    61    1
    64    22    62    1
    65    22    63    1
    66    22    64    1
    67    23    65    1
    68    23    66    1
    69    23    67    1
    70    25    68    1
    71    25    69    1
    72    25    70    1
    73    26    71    1
    74    26    72    1
    75    26    73    1
    76    27    74    1
    77    27    75    1
    78    27    76    1
    79    28    77    1
    80    29    78    1
    81    29    79    1
    82    31    80    1
    83    32    81    1
    84    32    82    1
    85    33    83    1
    86    33    84    1
    87    36    85    1
    88    36    86    1
    89    38    87    1
    90    40    88    1
    91    40    89    1
    92    40    90    1
    93    41    91    1
    94    42    92    1
    95    43    93    1
    96    45    94    1
    97    46    95    1
    98    46    96    1
    99    46    97    1
@<TRIPOS>MOLECULE
23693553
 97 99 0 0 0
SMALL
GASTEIGER

@<TRIPOS>ATOM
      1 O           3.0621    0.0116   -3.1845 O.2     1  LIG1       -0.2526
      2 O           0.1329   -1.4791   -1.2753 O.2     1  LIG1       -0.2731
      3 O           0.2785    2.0432    0.3203 O.2     1  LIG1       -0.2689
      4 O           3.7200    0.5026    0.9554 O.co2   1  LIG1       -0.5479
      5 OXT         4.1882   -1.5883    1.7388 O.co2   1  LIG1       -0.5479
      6 O           4.3258    3.4912    7.9073 O.3     1  LIG1       -0.4515
      7 O           4.9014    1.5747    6.7540 O.2     1  LIG1       -0.2227
      8 N           2.2185   -0.9391   -5.1253 N.am    1  LIG1       -0.2801
      9 N           0.8247    0.0097   -3.4814 N.am    1  LIG1       -0.2879
     10 N           1.2270   -0.0504    0.1655 N.am    1  LIG1       -0.2273
     11 N           0.2940    1.5546    3.0602 N.4     1  LIG1        0.2276
     12 N           3.4328    3.0776    5.8399 N.ar    1  LIG1       -0.2526
     13 C           3.5915   -1.3684   -5.4911 C.3     1  LIG1        0.0249
     14 C           1.0639   -1.2606   -6.0026 C.3     1  LIG1        0.0249
     15 C           3.7086   -2.3713   -6.6516 C.3     1  LIG1       -0.0344
     16 C           1.3416   -2.2296   -7.1616 C.3     1  LIG1       -0.0344
     17 C           2.4565   -3.1985   -6.8414 C.3     1  LIG1       -0.0497
     18 CA          0.5984    0.7150   -2.1996 C.3     1  LIG1        0.1019
     19 C          -0.8403    2.8508   -2.8600 C.3     1  LIG1       -0.0356
     20 C          -0.7819    1.4099   -2.2548 C.3     1  LIG1       -0.0210
     21 C           2.1008   -0.2906   -3.8857 C.2     1  LIG1        0.3033
     22 C           4.5150   -0.1772   -5.7922 C.3     1  LIG1       -0.0464
     23 C           0.4197   -0.0025   -6.5906 C.3     1  LIG1       -0.0464
     24 C           0.6497   -0.3682   -1.0769 C.2     1  LIG1        0.2429
     25 C           0.1827    3.8225   -2.2471 C.3     1  LIG1       -0.0600
     26 C          -0.6200    2.8279   -4.3783 C.3     1  LIG1       -0.0600
     27 C          -2.2515    3.4156   -2.5923 C.3     1  LIG1       -0.0600
     28 CA          2.0297   -1.1618    0.7735 C.3     1  LIG1        0.0730
     29 C           1.4218   -1.8165    2.0378 C.3     1  LIG1       -0.0286
     30 C           1.0659    1.1936    0.7628 C.2     1  LIG1        0.2708
     31 CA          1.5613    1.4823    2.1957 C.3     1  LIG1        0.0579
     32 C          -0.0812   -2.0920    2.0119 C.3     1  LIG1       -0.0513
     33 C           2.2660    2.8500    2.3104 C.3     1  LIG1        0.0261
     34 C           3.4922   -0.7323    1.1373 C.2     1  LIG1        0.0626
     35 C           2.5582    3.1960    3.7481 C.ar    1  LIG1       -0.0158
     36 C          -0.5753   -2.7107    3.3293 C.3     1  LIG1       -0.0558
     37 C           1.9915    4.2418    4.5341 C.ar    1  LIG1        0.0038
     38 C           3.3946    2.4902    4.5833 C.ar    1  LIG1        0.0202
     39 C           2.5020    4.1251    5.8374 C.ar    1  LIG1        0.0598
     40 C          -0.5491   -1.7530    4.5151 C.3     1  LIG1       -0.0653
     41 C           1.0629    5.2681    4.2510 C.ar    1  LIG1       -0.0523
     42 C           2.0565    4.9825    6.8640 C.ar    1  LIG1       -0.0371
     43 C           0.6422    6.1300    5.2667 C.ar    1  LIG1       -0.0611
     44 C           4.2820    2.6194    6.8708 C.2     1  LIG1        0.4196
     45 C           1.1254    5.9792    6.5587 C.ar    1  LIG1       -0.0598
     46 C           5.2974    3.1393    8.8922 C.3     1  LIG1        0.0835
     47 H           0.1831   -0.7553   -3.6298 H       1  LIG1        0.1510
     48 H1          0.5250    1.8038    4.0281 H       1  LIG1        0.2002
     49 H2         -0.1936    0.6558    3.0466 H       1  LIG1        0.2002
     50 H3         -0.3291    2.2664    2.6565 H       1  LIG1        0.2002
     51 H           3.9884   -1.8752   -4.6002 H       1  LIG1        0.0498
     52 H           0.3228   -1.7561   -5.3641 H       1  LIG1        0.0498
     53 H           4.5711   -3.0278   -6.4842 H       1  LIG1        0.0283
     54 H           3.9196   -1.8393   -7.5900 H       1  LIG1        0.0283
     55 H           1.6081   -1.6706   -8.0697 H       1  LIG1        0.0283
     56 H           0.4236   -2.7775   -7.4081 H       1  LIG1        0.0283
     57 H           2.2278   -3.7876   -5.9470 H       1  LIG1        0.0266
     58 H           2.5934   -3.8959   -7.6756 H       1  LIG1        0.0266
     59 HA          1.4191    1.4161   -2.0311 H       1  LIG1        0.0595
     60 H          -1.2254    1.4371   -1.2542 H       1  LIG1        0.0293
     61 H          -1.4751    0.7720   -2.8238 H       1  LIG1        0.0293
     62 H           4.1146    0.4315   -6.6099 H       1  LIG1        0.0248
     63 H           5.5134   -0.5263   -6.0797 H       1  LIG1        0.0248
     64 H           4.6451    0.4790   -4.9279 H       1  LIG1        0.0248
     65 H           1.1596    0.6200   -7.1047 H       1  LIG1        0.0248
     66 H          -0.0434    0.6020   -5.8149 H       1  LIG1        0.0248
     67 H          -0.3716   -0.2593   -7.3037 H       1  LIG1        0.0248
     68 H           0.0351    3.9403   -1.1709 H       1  LIG1        0.0235
     69 H           0.0837    4.8212   -2.6902 H       1  LIG1        0.0235
     70 H           1.2142    3.5041   -2.4245 H       1  LIG1        0.0235
     71 H          -1.3383    2.1625   -4.8684 H       1  LIG1        0.0235
     72 H           0.3942    2.5034   -4.6296 H       1  LIG1        0.0235
     73 H          -0.7545    3.8251   -4.8140 H       1  LIG1        0.0235
     74 H          -3.0246    2.7739   -3.0293 H       1  LIG1        0.0235
     75 H          -2.3680    4.4176   -3.0206 H       1  LIG1        0.0235
     76 H          -2.4475    3.4917   -1.5165 H       1  LIG1        0.0235
     77 HA          2.1448   -1.9469    0.0140 H       1  LIG1        0.0567
     78 H           1.6631   -1.2262    2.9244 H       1  LIG1        0.0287
     79 H           1.9345   -2.7750    2.2020 H       1  LIG1        0.0287
     80 HA          2.1431    0.7033    2.6693 H       1  LIG1        0.0952
     81 H          -0.2984   -2.7922    1.1973 H       1  LIG1        0.0266
     82 H          -0.6454   -1.1762    1.8097 H       1  LIG1        0.0266
     83 H           1.6482    3.6364    1.8593 H       1  LIG1        0.0374
     84 H           3.2046    2.8492    1.7458 H       1  LIG1        0.0374
     85 H           0.0234   -3.5967    3.5714 H       1  LIG1        0.0263
     86 H          -1.6070   -3.0535    3.1894 H       1  LIG1        0.0263
     87 H           4.0240    1.6270    4.3812 H       1  LIG1        0.0818
     88 H           0.4627   -1.4047    4.7417 H       1  LIG1        0.0230
     89 H          -0.9292   -2.2535    5.4118 H       1  LIG1        0.0230
     90 H          -1.1831   -0.8811    4.3286 H       1  LIG1        0.0230
     91 H           0.6801    5.4105    3.2435 H       1  LIG1        0.0624
     92 H           2.4205    4.8962    7.8839 H       1  LIG1        0.0638
     93 H          -0.0625    6.9280    5.0435 H       1  LIG1        0.0618
     94 H           0.7894    6.6544    7.3436 H       1  LIG1        0.0618
     95 H           5.3492    3.9509    9.6228 H       1  LIG1        0.0661
     96 H           6.2871    3.0254    8.4372 H       1  LIG1        0.0661
     97 H           5.0011    2.2210    9.4079 H       1  LIG1        0.0661
@<TRIPOS>BOND
     1     1    21    2
     2     2    24    2
     3     3    30    2
     4     4    34   ar
     5     5    34   ar
     6     6    44    1
     7     6    46    1
     8     7    44    2
     9     8    13    1
    10     8    14    1
    11     9    21   am
    12    10    24   am
    13    10    30   am
    14    12    39   ar
    15    12    38   ar
    16    12    44   am
    17    13    15    1
    18    13    22    1
    19    14    16    1
    20    14    23    1
    21    15    17    1
    22    16    17    1
    23    18     9    1
    24    18    24    1
    25    18    20    1
    26    19    20    1
    27    19    27    1
    28    19    26    1
    29    19    25    1
    30    21     8   am
    31    28    34    1
    32    28    29    1
    33    28    10    1
    34    29    32    1
    35    31    33    1
    36    31    11    1
    37    31    30    1
    38    32    36    1
    39    33    35    1
    40    35    38   ar
    41    35    37   ar
    42    36    40    1
    43    37    39   ar
    44    37    41   ar
    45    39    42   ar
    46    41    43   ar
    47    42    45   ar
    48    43    45   ar
    49     9    47    1
    50    11    48    1
    51    11    49    1
    52    11    50    1
    53    13    51    1
    54    14    52    1
    55    15    53    1
    56    15    54    1
    57    16    55    1
    58    16    56    1
    59    17    57    1
    60    17    58    1
    61    18    59    1
    62    20    60    1
    63    20    61    1
    64    22    62    1
    65    22    63    1
    66    22    64    1
    67    23    65    1
    68    23    66    1
    69    23    67    1
    70    25    68    1
    71    25    69    1
    72    25    70    1
    73    26    71    1
    74    26    72    1
    75    26    73    1
    76    27    74    1
    77    27    75    1
    78    27    76    1
    79    28    77    1
    80    29    78    1
    81    29    79    1
    82    31    80    1
    83    32    81    1
    84    32    82    1
    85    33    83    1
    86    33    84    1
    87    36    85    1
    88    36    86    1
    89    38    87    1
    90    40    88    1
    91    40    89    1
    92    40    90    1
    93    41    91    1
    94    42    92    1
    95    43    93    1
    96    45    94    1
    97    46    95    1
    98    46    96    1
    99    46    97    1
@<TRIPOS>MOLECULE
23693553
 97 99 0 0 0
SMALL
GASTEIGER

@<TRIPOS>ATOM
      1 O           3.1141    0.0750   -3.2563 O.2     1  LIG1       -0.2526
      2 O           0.4025   -1.5871   -1.3603 O.2     1  LIG1       -0.2731
      3 O           0.0909    1.8181    0.3591 O.2     1  LIG1       -0.2689
      4 O           3.8234    0.5420    0.8342 O.co2   1  LIG1       -0.5479
      5 OXT         4.0756   -1.2422    2.2235 O.co2   1  LIG1       -0.5479
      6 O          -3.3370    5.9363    2.0832 O.3     1  LIG1       -0.4515
      7 O          -3.0739    4.2634    3.6598 O.2     1  LIG1       -0.2227
      8 N           2.2713   -0.9472   -5.1637 N.am    1  LIG1       -0.2801
      9 N           0.8723   -0.0237   -3.5157 N.am    1  LIG1       -0.2879
     10 N           1.3222   -0.0922    0.1383 N.am    1  LIG1       -0.2273
     11 N           0.4286    1.1294    3.1746 N.4     1  LIG1        0.2276
     12 N          -1.2915    4.9416    2.3963 N.ar    1  LIG1       -0.2526
     13 C           3.6449   -1.3669   -5.5322 C.3     1  LIG1        0.0249
     14 C           1.1143   -1.2883   -6.0313 C.3     1  LIG1        0.0249
     15 C           3.7604   -2.3959   -6.6699 C.3     1  LIG1       -0.0344
     16 C           1.3879   -2.2859   -7.1663 C.3     1  LIG1       -0.0344
     17 C           2.5130   -3.2372   -6.8295 C.3     1  LIG1       -0.0497
     18 CA          0.6244    0.6589   -2.2237 C.3     1  LIG1        0.1019
     19 C          -0.9887    2.6689   -2.8595 C.3     1  LIG1       -0.0356
     20 C          -0.8101    1.2351   -2.2643 C.3     1  LIG1       -0.0210
     21 C           2.1521   -0.2746   -3.9368 C.2     1  LIG1        0.3033
     22 C           4.5523   -0.1733   -5.8671 C.3     1  LIG1       -0.0464
     23 C           0.4737   -0.0417   -6.6463 C.3     1  LIG1       -0.0464
     24 C           0.7900   -0.4338   -1.1206 C.2     1  LIG1        0.2429
     25 C          -2.4099    3.1552   -2.5069 C.3     1  LIG1       -0.0600
     26 C           0.0118    3.6899   -2.3013 C.3     1  LIG1       -0.0600
     27 C          -0.8510    2.6610   -4.3868 C.3     1  LIG1       -0.0600
     28 CA          2.1615   -1.1661    0.7663 C.3     1  LIG1        0.0730
     29 C           1.4759   -1.9216    1.9348 C.3     1  LIG1       -0.0286
     30 C           1.0208    1.1102    0.7688 C.2     1  LIG1        0.2708
     31 CA          1.5396    1.4731    2.1911 C.3     1  LIG1        0.0579
     32 C          -0.0150   -2.2518    1.8029 C.3     1  LIG1       -0.0513
     33 C           1.8942    2.9776    2.3502 C.3     1  LIG1        0.0261
     34 C           3.5487   -0.6206    1.2629 C.2     1  LIG1        0.0626
     35 C           0.7540    3.9660    2.2200 C.ar    1  LIG1       -0.0158
     36 C          -0.3273   -3.5630    1.0806 C.3     1  LIG1       -0.0558
     37 C           0.6779    5.0630    1.3022 C.ar    1  LIG1        0.0038
     38 C          -0.3977    4.0411    2.9746 C.ar    1  LIG1        0.0202
     39 C          -0.5949    5.6476    1.4155 C.ar    1  LIG1        0.0598
     40 C           0.0952   -4.7978    1.8643 C.3     1  LIG1       -0.0653
     41 C           1.5885    5.5947    0.3612 C.ar    1  LIG1       -0.0523
     42 C          -0.9690    6.7323    0.5964 C.ar    1  LIG1       -0.0371
     43 C           1.2201    6.6807   -0.4367 C.ar    1  LIG1       -0.0611
     44 C          -2.6458    5.0162    2.7964 C.2     1  LIG1        0.4196
     45 C          -0.0455    7.2368   -0.3229 C.ar    1  LIG1       -0.0598
     46 C          -4.7278    5.9855    2.4023 C.3     1  LIG1        0.0835
     47 H           0.2732   -0.8253   -3.6449 H       1  LIG1        0.1510
     48 H1          0.6278    1.5140    4.1019 H       1  LIG1        0.2002
     49 H2          0.3073    0.1173    3.2567 H       1  LIG1        0.2002
     50 H3         -0.4496    1.5195    2.8065 H       1  LIG1        0.2002
     51 H           4.0551   -1.8489   -4.6336 H       1  LIG1        0.0498
     52 H           0.3716   -1.7675   -5.3827 H       1  LIG1        0.0498
     53 H           4.6291   -3.0418   -6.4942 H       1  LIG1        0.0283
     54 H           3.9589   -1.8841   -7.6223 H       1  LIG1        0.0283
     55 H           1.6412   -1.7501   -8.0919 H       1  LIG1        0.0283
     56 H           0.4715   -2.8468   -7.3888 H       1  LIG1        0.0283
     57 H           2.2948   -3.8053   -5.9190 H       1  LIG1        0.0266
     58 H           2.6489   -3.9551   -7.6462 H       1  LIG1        0.0266
     59 HA          1.3943    1.4172   -2.0637 H       1  LIG1        0.0595
     60 H          -1.2550    1.2145   -1.2659 H       1  LIG1        0.0293
     61 H          -1.4540    0.5474   -2.8332 H       1  LIG1        0.0293
     62 H           4.1355    0.4166   -6.6901 H       1  LIG1        0.0248
     63 H           5.5504   -0.5183   -6.1607 H       1  LIG1        0.0248
     64 H           4.6871    0.4992   -5.0160 H       1  LIG1        0.0248
     65 H           1.2113    0.5567   -7.1914 H       1  LIG1        0.0248
     66 H           0.0331    0.5921   -5.8816 H       1  LIG1        0.0248
     67 H          -0.3327   -0.3112   -7.3375 H       1  LIG1        0.0248
     68 H          -3.1706    2.4673   -2.8915 H       1  LIG1        0.0235
     69 H          -2.6093    4.1458   -2.9316 H       1  LIG1        0.0235
     70 H          -2.5417    3.2310   -1.4212 H       1  LIG1        0.0235
     71 H           1.0437    3.4596   -2.5834 H       1  LIG1        0.0235
     72 H          -0.0472    3.7365   -1.2139 H       1  LIG1        0.0235
     73 H          -0.1995    4.6955   -2.6843 H       1  LIG1        0.0235
     74 H           0.1757    2.4335   -4.6886 H       1  LIG1        0.0235
     75 H          -1.0992    3.6399   -4.8135 H       1  LIG1        0.0235
     76 H          -1.5258    1.9273   -4.8401 H       1  LIG1        0.0235
     77 HA          2.4078   -1.9026   -0.0100 H       1  LIG1        0.0567
     78 H           1.5984   -1.3416    2.8554 H       1  LIG1        0.0287
     79 H           2.0400   -2.8414    2.1314 H       1  LIG1        0.0287
     80 HA          2.3715    0.8901    2.5572 H       1  LIG1        0.0952
     81 H          -0.5546   -1.4313    1.3195 H       1  LIG1        0.0266
     82 H          -0.4370   -2.3175    2.8149 H       1  LIG1        0.0266
     83 H           2.6764    3.2225    1.6223 H       1  LIG1        0.0374
     84 H           2.3423    3.1288    3.3420 H       1  LIG1        0.0374
     85 H           0.1403   -3.5872    0.0929 H       1  LIG1        0.0263
     86 H          -1.4118   -3.6135    0.9240 H       1  LIG1        0.0263
     87 H          -0.7344    3.4896    3.8413 H       1  LIG1        0.0818
     88 H           1.1837   -4.8972    1.8981 H       1  LIG1        0.0230
     89 H          -0.3044   -5.6986    1.3878 H       1  LIG1        0.0230
     90 H          -0.2813   -4.7641    2.8917 H       1  LIG1        0.0230
     91 H           2.5803    5.1644    0.2453 H       1  LIG1        0.0624
     92 H          -1.9510    7.1911    0.6577 H       1  LIG1        0.0638
     93 H           1.9272    7.0819   -1.1587 H       1  LIG1        0.0618
     94 H          -0.3256    8.0731   -0.9598 H       1  LIG1        0.0618
     95 H          -5.1832    6.7864    1.8133 H       1  LIG1        0.0661
     96 H          -4.8751    6.2092    3.4637 H       1  LIG1        0.0661
     97 H          -5.2126    5.0406    2.1358 H       1  LIG1        0.0661
@<TRIPOS>BOND
     1     1    21    2
     2     2    24    2
     3     3    30    2
     4     4    34   ar
     5     5    34   ar
     6     6    44    1
     7     6    46    1
     8     7    44    2
     9     8    13    1
    10     8    14    1
    11     9    21   am
    12    10    24   am
    13    10    30   am
    14    12    39   ar
    15    12    38   ar
    16    12    44   am
    17    13    15    1
    18    13    22    1
    19    14    16    1
    20    14    23    1
    21    15    17    1
    22    16    17    1
    23    18     9    1
    24    18    24    1
    25    18    20    1
    26    19    20    1
    27    19    27    1
    28    19    26    1
    29    19    25    1
    30    21     8   am
    31    28    34    1
    32    28    29    1
    33    28    10    1
    34    29    32    1
    35    31    33    1
    36    31    11    1
    37    31    30    1
    38    32    36    1
    39    33    35    1
    40    35    38   ar
    41    35    37   ar
    42    36    40    1
    43    37    39   ar
    44    37    41   ar
    45    39    42   ar
    46    41    43   ar
    47    42    45   ar
    48    43    45   ar
    49     9    47    1
    50    11    48    1
    51    11    49    1
    52    11    50    1
    53    13    51    1
    54    14    52    1
    55    15    53    1
    56    15    54    1
    57    16    55    1
    58    16    56    1
    59    17    57    1
    60    17    58    1
    61    18    59    1
    62    20    60    1
    63    20    61    1
    64    22    62    1
    65    22    63    1
    66    22    64    1
    67    23    65    1
    68    23    66    1
    69    23    67    1
    70    25    68    1
    71    25    69    1
    72    25    70    1
    73    26    71    1
    74    26    72    1
    75    26    73    1
    76    27    74    1
    77    27    75    1
    78    27    76    1
    79    28    77    1
    80    29    78    1
    81    29    79    1
    82    31    80    1
    83    32    81    1
    84    32    82    1
    85    33    83    1
    86    33    84    1
    87    36    85    1
    88    36    86    1
    89    38    87    1
    90    40    88    1
    91    40    89    1
    92    40    90    1
    93    41    91    1
    94    42    92    1
    95    43    93    1
    96    45    94    1
    97    46    95    1
    98    46    96    1
    99    46    97    1
@<TRIPOS>MOLECULE
23693553
 97 99 0 0 0
SMALL
GASTEIGER

@<TRIPOS>ATOM
      1 O           3.0806    0.0621   -3.1780 O.2     1  LIG1       -0.2526
      2 O           0.1421   -1.5104   -1.3670 O.2     1  LIG1       -0.2731
      3 O           0.0826    1.8940    0.4214 O.2     1  LIG1       -0.2689
      4 O           3.6411    0.4166    0.9330 O.co2   1  LIG1       -0.5479
      5 OXT         4.0063   -1.5812    1.9657 O.co2   1  LIG1       -0.5479
      6 O           4.2160    4.3480    7.6928 O.3     1  LIG1       -0.4515
      7 O           5.4947    2.9380    6.3888 O.2     1  LIG1       -0.2227
      8 N           2.2434   -0.8980   -5.1187 N.am    1  LIG1       -0.2801
      9 N           0.8436    0.0431   -3.4795 N.am    1  LIG1       -0.2879
     10 N           1.1535   -0.1230    0.1716 N.am    1  LIG1       -0.2273
     11 N           0.2447    1.3025    3.1629 N.4     1  LIG1        0.2276
     12 N           3.3829    3.5328    5.7234 N.ar    1  LIG1       -0.2526
     13 C           3.6157   -1.3383   -5.4741 C.3     1  LIG1        0.0249
     14 C           1.0880   -1.2303   -5.9910 C.3     1  LIG1        0.0249
     15 C           3.7335   -2.3486   -6.6281 C.3     1  LIG1       -0.0344
     16 C           1.3696   -2.1976   -7.1497 C.3     1  LIG1       -0.0344
     17 C           2.4785   -3.1707   -6.8200 C.3     1  LIG1       -0.0497
     18 CA          0.5958    0.7193   -2.1861 C.3     1  LIG1        0.1019
     19 C          -0.8213    2.8702   -2.8215 C.3     1  LIG1       -0.0356
     20 C          -0.7839    1.4111   -2.2628 C.3     1  LIG1       -0.0210
     21 C           2.1223   -0.2466   -3.8803 C.2     1  LIG1        0.3033
     22 C           4.5482   -0.1546   -5.7764 C.3     1  LIG1       -0.0464
     23 C           0.4296    0.0226   -6.5761 C.3     1  LIG1       -0.0464
     24 C           0.6276   -0.4014   -1.1021 C.2     1  LIG1        0.2429
     25 C           0.2037    3.8078   -2.1610 C.3     1  LIG1       -0.0600
     26 C          -0.5801    2.8917   -4.3376 C.3     1  LIG1       -0.0600
     27 C          -2.2306    3.4400   -2.5551 C.3     1  LIG1       -0.0600
     28 CA          1.9427   -1.2451    0.7798 C.3     1  LIG1        0.0730
     29 C           1.2618   -1.9190    1.9966 C.3     1  LIG1       -0.0286
     30 C           0.9387    1.0870    0.8159 C.2     1  LIG1        0.2708
     31 CA          1.4683    1.3783    2.2415 C.3     1  LIG1        0.0579
     32 C          -0.2069   -2.3178    1.8342 C.3     1  LIG1       -0.0513
     33 C           2.0443    2.8090    2.3255 C.3     1  LIG1        0.0261
     34 C           3.3826   -0.7949    1.2105 C.2     1  LIG1        0.0626
     35 C           2.3213    3.2408    3.7407 C.ar    1  LIG1       -0.0158
     36 C          -0.4345   -3.6315    1.0861 C.3     1  LIG1       -0.0558
     37 C           1.4658    3.9852    4.6074 C.ar    1  LIG1        0.0038
     38 C           3.4498    2.9404    4.4697 C.ar    1  LIG1        0.0202
     39 C           2.0980    4.0786    5.8570 C.ar    1  LIG1        0.0598
     40 C           0.0831   -4.8500    1.8381 C.3     1  LIG1       -0.0653
     41 C           0.1830    4.5540    4.4452 C.ar    1  LIG1       -0.0523
     42 C           1.4371    4.6617    6.9566 C.ar    1  LIG1       -0.0371
     43 C          -0.4609    5.1484    5.5335 C.ar    1  LIG1       -0.0611
     44 C           4.4662    3.5479    6.6289 C.2     1  LIG1        0.4196
     45 C           0.1543    5.1856    6.7763 C.ar    1  LIG1       -0.0598
     46 C           5.3472    4.5183    8.5541 C.3     1  LIG1        0.0835
     47 H           0.2090   -0.7245   -3.6424 H       1  LIG1        0.1510
     48 H1          0.5014    1.5457    4.1262 H       1  LIG1        0.2002
     49 H2         -0.1547    0.3595    3.1530 H       1  LIG1        0.2002
     50 H3         -0.4658    1.9584    2.8147 H       1  LIG1        0.2002
     51 H           4.0040   -1.8423   -4.5780 H       1  LIG1        0.0498
     52 H           0.3545   -1.7341   -5.3498 H       1  LIG1        0.0498
     53 H           4.5916   -3.0085   -6.4522 H       1  LIG1        0.0283
     54 H           3.9521   -1.8232   -7.5686 H       1  LIG1        0.0283
     55 H           1.6441   -1.6383   -8.0550 H       1  LIG1        0.0283
     56 H           0.4517   -2.7431   -7.4022 H       1  LIG1        0.0283
     57 H           2.2427   -3.7547   -5.9241 H       1  LIG1        0.0266
     58 H           2.6158   -3.8729   -7.6498 H       1  LIG1        0.0266
     59 HA          1.4133    1.4132   -1.9791 H       1  LIG1        0.0595
     60 H          -1.2651    1.4021   -1.2805 H       1  LIG1        0.0293
     61 H          -1.4569    0.7935   -2.8768 H       1  LIG1        0.0293
     62 H           4.1559    0.4523   -6.5992 H       1  LIG1        0.0248
     63 H           5.5457   -0.5116   -6.0569 H       1  LIG1        0.0248
     64 H           4.6776    0.5055   -4.9148 H       1  LIG1        0.0248
     65 H           1.1609    0.6465   -7.1009 H       1  LIG1        0.0248
     66 H          -0.0295    0.6303   -5.7995 H       1  LIG1        0.0248
     67 H          -0.3670   -0.2425   -7.2805 H       1  LIG1        0.0248
     68 H           0.0724    3.8521   -1.0770 H       1  LIG1        0.0235
     69 H           0.0935    4.8318   -2.5384 H       1  LIG1        0.0235
     70 H           1.2343    3.5074   -2.3735 H       1  LIG1        0.0235
     71 H          -1.3016    2.2538   -4.8588 H       1  LIG1        0.0235
     72 H           0.4312    2.5566   -4.5871 H       1  LIG1        0.0235
     73 H          -0.6921    3.9044   -4.7425 H       1  LIG1        0.0235
     74 H          -3.0039    2.8160   -3.0167 H       1  LIG1        0.0235
     75 H          -2.3344    4.4534   -2.9594 H       1  LIG1        0.0235
     76 H          -2.4378    3.4907   -1.4800 H       1  LIG1        0.0235
     77 HA          2.1022   -2.0102    0.0091 H       1  LIG1        0.0567
     78 H           1.3228   -1.2621    2.8687 H       1  LIG1        0.0287
     79 H           1.8451   -2.7989    2.2913 H       1  LIG1        0.0287
     80 HA          2.1496    0.6600    2.6789 H       1  LIG1        0.0952
     81 H          -0.7706   -1.5154    1.3472 H       1  LIG1        0.0266
     82 H          -0.6435   -2.4170    2.8369 H       1  LIG1        0.0266
     83 H           1.3598    3.5319    1.8635 H       1  LIG1        0.0374
     84 H           2.9705    2.8685    1.7414 H       1  LIG1        0.0374
     85 H           0.0237   -3.5989    0.0937 H       1  LIG1        0.0263
     86 H          -1.5141   -3.7542    0.9369 H       1  LIG1        0.0263
     87 H           4.3446    2.3942    4.1859 H       1  LIG1        0.0818
     88 H           1.1765   -4.8755    1.8551 H       1  LIG1        0.0230
     89 H          -0.2594   -5.7669    1.3483 H       1  LIG1        0.0230
     90 H          -0.2792   -4.8625    2.8711 H       1  LIG1        0.0230
     91 H          -0.3107    4.5500    3.4768 H       1  LIG1        0.0624
     92 H           1.8977    4.7209    7.9392 H       1  LIG1        0.0638
     93 H          -1.4466    5.5913    5.4069 H       1  LIG1        0.0618
     94 H          -0.3565    5.6471    7.6198 H       1  LIG1        0.0618
     95 H           5.0763    5.2390    9.3267 H       1  LIG1        0.0661
     96 H           6.1953    4.9171    7.9934 H       1  LIG1        0.0661
     97 H           5.6064    3.5709    9.0297 H       1  LIG1        0.0661
@<TRIPOS>BOND
     1     1    21    2
     2     2    24    2
     3     3    30    2
     4     4    34   ar
     5     5    34   ar
     6     6    44    1
     7     6    46    1
     8     7    44    2
     9     8    13    1
    10     8    14    1
    11     9    21   am
    12    10    24   am
    13    10    30   am
    14    12    39   ar
    15    12    38   ar
    16    12    44   am
    17    13    15    1
    18    13    22    1
    19    14    16    1
    20    14    23    1
    21    15    17    1
    22    16    17    1
    23    18     9    1
    24    18    24    1
    25    18    20    1
    26    19    20    1
    27    19    27    1
    28    19    26    1
    29    19    25    1
    30    21     8   am
    31    28    34    1
    32    28    29    1
    33    28    10    1
    34    29    32    1
    35    31    33    1
    36    31    11    1
    37    31    30    1
    38    32    36    1
    39    33    35    1
    40    35    38   ar
    41    35    37   ar
    42    36    40    1
    43    37    39   ar
    44    37    41   ar
    45    39    42   ar
    46    41    43   ar
    47    42    45   ar
    48    43    45   ar
    49     9    47    1
    50    11    48    1
    51    11    49    1
    52    11    50    1
    53    13    51    1
    54    14    52    1
    55    15    53    1
    56    15    54    1
    57    16    55    1
    58    16    56    1
    59    17    57    1
    60    17    58    1
    61    18    59    1
    62    20    60    1
    63    20    61    1
    64    22    62    1
    65    22    63    1
    66    22    64    1
    67    23    65    1
    68    23    66    1
    69    23    67    1
    70    25    68    1
    71    25    69    1
    72    25    70    1
    73    26    71    1
    74    26    72    1
    75    26    73    1
    76    27    74    1
    77    27    75    1
    78    27    76    1
    79    28    77    1
    80    29    78    1
    81    29    79    1
    82    31    80    1
    83    32    81    1
    84    32    82    1
    85    33    83    1
    86    33    84    1
    87    36    85    1
    88    36    86    1
    89    38    87    1
    90    40    88    1
    91    40    89    1
    92    40    90    1
    93    41    91    1
    94    42    92    1
    95    43    93    1
    96    45    94    1
    97    46    95    1
    98    46    96    1
    99    46    97    1
@<TRIPOS>MOLECULE
23693553
 97 99 0 0 0
SMALL
GASTEIGER

@<TRIPOS>ATOM
      1 O           0.3742   -4.9151   -1.9138 O.2     1  LIG1       -0.2526
      2 O           0.4204    0.0825   -2.0183 O.2     1  LIG1       -0.2731
      3 O           1.0220    1.6071    1.5337 O.2     1  LIG1       -0.2689
      4 O           3.6531   -0.3383   -0.5526 O.co2   1  LIG1       -0.5479
      5 OXT         4.3796   -1.6531    1.1536 O.co2   1  LIG1       -0.5479
      6 O           2.1908    8.6301   -3.4844 O.3     1  LIG1       -0.4515
      7 O           1.9140    8.7278   -1.1931 O.2     1  LIG1       -0.2227
      8 N           2.5360   -5.1852   -1.1517 N.am    1  LIG1       -0.2801
      9 N           1.4831   -3.0892   -1.1453 N.am    1  LIG1       -0.2879
     10 N           1.1637   -0.2353    0.1408 N.am    1  LIG1       -0.2273
     11 N           3.1669    1.9821   -0.9676 N.4     1  LIG1        0.2276
     12 N           1.9055    6.7048   -2.2733 N.ar    1  LIG1       -0.2526
     13 C           3.8168   -4.6074   -0.6795 C.3     1  LIG1        0.0249
     14 C           2.3861   -6.6487   -1.2878 C.3     1  LIG1        0.0249
     15 C           4.7135   -5.5557    0.1301 C.3     1  LIG1       -0.0344
     16 C           3.3449   -7.4944   -0.4347 C.3     1  LIG1       -0.0344
     17 C           3.9330   -6.7111    0.7233 C.3     1  LIG1       -0.0497
     18 CA          0.3431   -2.1887   -1.3306 C.3     1  LIG1        0.1019
     19 C          -2.2621   -1.8675   -0.8614 C.3     1  LIG1       -0.0356
     20 C          -0.9059   -2.5588   -0.4897 C.3     1  LIG1       -0.0210
     21 C           1.4041   -4.4245   -1.4567 C.2     1  LIG1        0.3033
     22 C           4.6176   -4.0106   -1.8427 C.3     1  LIG1       -0.0464
     23 C           2.4512   -7.0942   -2.7518 C.3     1  LIG1       -0.0464
     24 C           0.7060   -0.6994   -1.1020 C.2     1  LIG1        0.2429
     25 C          -2.3783   -0.4609   -0.2452 C.3     1  LIG1       -0.0600
     26 C          -2.4847   -1.7766   -2.3809 C.3     1  LIG1       -0.0600
     27 C          -3.4053   -2.7211   -0.2691 C.3     1  LIG1       -0.0600
     28 CA          2.0168   -1.1106    1.0113 C.3     1  LIG1        0.0730
     29 C           2.0147   -0.8557    2.5313 C.3     1  LIG1       -0.0286
     30 C           1.2424    1.1421    0.4106 C.2     1  LIG1        0.2708
     31 CA          1.6962    2.1074   -0.7177 C.3     1  LIG1        0.0579
     32 C           0.6433   -1.0728    3.1791 C.3     1  LIG1       -0.0513
     33 C           1.3614    3.5615   -0.3666 C.3     1  LIG1        0.0261
     34 C           3.5020   -1.0391    0.5077 C.2     1  LIG1        0.0626
     35 C           1.6128    4.6068   -1.4294 C.ar    1  LIG1       -0.0158
     36 C           0.6619   -0.8296    4.6919 C.3     1  LIG1       -0.0558
     37 C           1.7184    4.5172   -2.8598 C.ar    1  LIG1        0.0038
     38 C           1.7353    5.9467   -1.1261 C.ar    1  LIG1        0.0202
     39 C           1.9409    5.8177   -3.3553 C.ar    1  LIG1        0.0598
     40 C           1.4445   -1.8816    5.4659 C.3     1  LIG1       -0.0653
     41 C           1.6428    3.4598   -3.8021 C.ar    1  LIG1       -0.0523
     42 C           2.1215    6.0463   -4.7367 C.ar    1  LIG1       -0.0371
     43 C           1.8278    3.6940   -5.1672 C.ar    1  LIG1       -0.0611
     44 C           2.0022    8.1171   -2.2471 C.2     1  LIG1        0.4196
     45 C           2.0706    4.9741   -5.6270 C.ar    1  LIG1       -0.0598
     46 C           2.2919   10.0540   -3.5358 C.3     1  LIG1        0.0835
     47 H           2.3900   -2.6841   -1.3271 H       1  LIG1        0.1510
     48 H1          3.4922    2.4314   -1.8248 H       1  LIG1        0.2002
     49 H2          3.4151    0.9549   -1.0480 H       1  LIG1        0.2002
     50 H3          3.7381    2.2728   -0.1695 H       1  LIG1        0.2002
     51 H           3.5489   -3.7982    0.0032 H       1  LIG1        0.0498
     52 H           1.3747   -6.8852   -0.9282 H       1  LIG1        0.0498
     53 H           5.2176   -4.9924    0.9251 H       1  LIG1        0.0283
     54 H           5.5156   -5.9589   -0.5028 H       1  LIG1        0.0283
     55 H           4.1663   -7.8794   -1.0537 H       1  LIG1        0.0283
     56 H           2.8165   -8.3786   -0.0578 H       1  LIG1        0.0283
     57 H           3.1473   -6.3513    1.3973 H       1  LIG1        0.0266
     58 H           4.6018   -7.3524    1.3076 H       1  LIG1        0.0266
     59 HA          0.1009   -2.2918   -2.3956 H       1  LIG1        0.0595
     60 H          -0.6988   -2.3867    0.5740 H       1  LIG1        0.0293
     61 H          -1.0683   -3.6393   -0.5658 H       1  LIG1        0.0293
     62 H           4.9254   -4.7915   -2.5467 H       1  LIG1        0.0248
     63 H           5.5189   -3.5093   -1.4738 H       1  LIG1        0.0248
     64 H           4.0395   -3.2778   -2.4129 H       1  LIG1        0.0248
     65 H           3.4252   -6.8583   -3.1925 H       1  LIG1        0.0248
     66 H           1.6869   -6.6003   -3.3596 H       1  LIG1        0.0248
     67 H           2.2894   -8.1752   -2.8331 H       1  LIG1        0.0248
     68 H          -2.1507   -0.4770    0.8262 H       1  LIG1        0.0235
     69 H          -3.3948   -0.0658   -0.3595 H       1  LIG1        0.0235
     70 H          -1.7141    0.2622   -0.7218 H       1  LIG1        0.0235
     71 H          -2.3672   -2.7560   -2.8577 H       1  LIG1        0.0235
     72 H          -1.7859   -1.0820   -2.8569 H       1  LIG1        0.0235
     73 H          -3.4936   -1.4142   -2.6116 H       1  LIG1        0.0235
     74 H          -3.4157   -3.7258   -0.7065 H       1  LIG1        0.0235
     75 H          -4.3840   -2.2682   -0.4677 H       1  LIG1        0.0235
     76 H          -3.2990   -2.8253    0.8161 H       1  LIG1        0.0235
     77 HA          1.6919   -2.1436    0.9011 H       1  LIG1        0.0567
     78 H           2.4067    0.1386    2.7715 H       1  LIG1        0.0287
     79 H           2.7176   -1.5580    2.9964 H       1  LIG1        0.0287
     80 HA          1.2024    1.8927   -1.6456 H       1  LIG1        0.0952
     81 H           0.2948   -2.0928    2.9775 H       1  LIG1        0.0266
     82 H          -0.0921   -0.3962    2.7310 H       1  LIG1        0.0266
     83 H           1.9219    3.8504    0.5347 H       1  LIG1        0.0374
     84 H           0.2987    3.6272   -0.0941 H       1  LIG1        0.0374
     85 H          -0.3716   -0.8306    5.0578 H       1  LIG1        0.0263
     86 H           1.0742    0.1633    4.9068 H       1  LIG1        0.0263
     87 H           1.6850    6.4521   -0.1664 H       1  LIG1        0.0818
     88 H           1.0583   -2.8856    5.2634 H       1  LIG1        0.0230
     89 H           1.3592   -1.6977    6.5418 H       1  LIG1        0.0230
     90 H           2.5085   -1.8633    5.2131 H       1  LIG1        0.0230
     91 H           1.4228    2.4360   -3.5198 H       1  LIG1        0.0624
     92 H           2.2912    7.0401   -5.1396 H       1  LIG1        0.0638
     93 H           1.7673    2.8659   -5.8704 H       1  LIG1        0.0618
     94 H           2.2046    5.1510   -6.6920 H       1  LIG1        0.0618
     95 H           2.8547   10.3177   -4.4359 H       1  LIG1        0.0661
     96 H           2.8221   10.4654   -2.6713 H       1  LIG1        0.0661
     97 H           1.2899   10.4851   -3.6119 H       1  LIG1        0.0661
@<TRIPOS>BOND
     1     1    21    2
     2     2    24    2
     3     3    30    2
     4     4    34   ar
     5     5    34   ar
     6     6    44    1
     7     6    46    1
     8     7    44    2
     9     8    13    1
    10     8    14    1
    11     9    21   am
    12    10    24   am
    13    10    30   am
    14    12    39   ar
    15    12    38   ar
    16    12    44   am
    17    13    15    1
    18    13    22    1
    19    14    16    1
    20    14    23    1
    21    15    17    1
    22    16    17    1
    23    18     9    1
    24    18    24    1
    25    18    20    1
    26    19    20    1
    27    19    27    1
    28    19    26    1
    29    19    25    1
    30    21     8   am
    31    28    34    1
    32    28    29    1
    33    28    10    1
    34    29    32    1
    35    31    33    1
    36    31    11    1
    37    31    30    1
    38    32    36    1
    39    33    35    1
    40    35    38   ar
    41    35    37   ar
    42    36    40    1
    43    37    39   ar
    44    37    41   ar
    45    39    42   ar
    46    41    43   ar
    47    42    45   ar
    48    43    45   ar
    49     9    47    1
    50    11    48    1
    51    11    49    1
    52    11    50    1
    53    13    51    1
    54    14    52    1
    55    15    53    1
    56    15    54    1
    57    16    55    1
    58    16    56    1
    59    17    57    1
    60    17    58    1
    61    18    59    1
    62    20    60    1
    63    20    61    1
    64    22    62    1
    65    22    63    1
    66    22    64    1
    67    23    65    1
    68    23    66    1
    69    23    67    1
    70    25    68    1
    71    25    69    1
    72    25    70    1
    73    26    71    1
    74    26    72    1
    75    26    73    1
    76    27    74    1
    77    27    75    1
    78    27    76    1
    79    28    77    1
    80    29    78    1
    81    29    79    1
    82    31    80    1
    83    32    81    1
    84    32    82    1
    85    33    83    1
    86    33    84    1
    87    36    85    1
    88    36    86    1
    89    38    87    1
    90    40    88    1
    91    40    89    1
    92    40    90    1
    93    41    91    1
    94    42    92    1
    95    43    93    1
    96    45    94    1
    97    46    95    1
    98    46    96    1
    99    46    97    1
@<TRIPOS>MOLECULE
23693553
 97 99 0 0 0
SMALL
GASTEIGER

@<TRIPOS>ATOM
      1 O           3.0893    0.1088   -3.1827 O.2     1  LIG1       -0.2526
      2 O           0.2687   -1.4870   -1.3427 O.2     1  LIG1       -0.2731
      3 O           0.3349    2.0312    0.3501 O.2     1  LIG1       -0.2689
      4 O           3.7434    0.4141    1.0040 O.co2   1  LIG1       -0.5479
      5 OXT         4.0366   -1.5854    2.0579 O.co2   1  LIG1       -0.5479
      6 O           3.7484    3.6388    8.1620 O.3     1  LIG1       -0.4515
      7 O           5.1862    2.4713    6.7840 O.2     1  LIG1       -0.2227
      8 N           2.2436   -0.8721   -5.1084 N.am    1  LIG1       -0.2801
      9 N           0.8494    0.0817   -3.4683 N.am    1  LIG1       -0.2879
     10 N           1.2548   -0.0725    0.1875 N.am    1  LIG1       -0.2273
     11 N           0.2887    1.3604    3.1110 N.4     1  LIG1        0.2276
     12 N           3.2170    3.3079    5.9561 N.ar    1  LIG1       -0.2526
     13 C           3.6125   -1.3207   -5.4643 C.3     1  LIG1        0.0249
     14 C           1.0877   -1.1925   -5.9844 C.3     1  LIG1        0.0249
     15 C           3.7193   -2.3379   -6.6129 C.3     1  LIG1       -0.0344
     16 C           1.3514   -2.1926   -7.1204 C.3     1  LIG1       -0.0344
     17 C           2.4618   -3.1613   -6.7839 C.3     1  LIG1       -0.0497
     18 CA          0.6222    0.7544   -2.1676 C.3     1  LIG1        0.1019
     19 C          -0.9206    2.8312   -2.7806 C.3     1  LIG1       -0.0356
     20 C          -0.7868    1.3928   -2.1843 C.3     1  LIG1       -0.0210
     21 C           2.1274   -0.2066   -3.8772 C.2     1  LIG1        0.3033
     22 C           4.5527   -0.1457   -5.7749 C.3     1  LIG1       -0.0464
     23 C           0.4727    0.0666   -6.6010 C.3     1  LIG1       -0.0464
     24 C           0.7252   -0.3633   -1.0835 C.2     1  LIG1        0.2429
     25 C          -2.3573    3.3228   -2.5046 C.3     1  LIG1       -0.0600
     26 C           0.0547    3.8465   -2.1613 C.3     1  LIG1       -0.0600
     27 C          -0.7040    2.8291   -4.2994 C.3     1  LIG1       -0.0600
     28 CA          2.0072   -1.2073    0.8238 C.3     1  LIG1        0.0730
     29 C           1.2864   -1.8629    2.0284 C.3     1  LIG1       -0.0286
     30 C           1.0995    1.1661    0.8017 C.2     1  LIG1        0.2708
     31 CA          1.5617    1.4264    2.2563 C.3     1  LIG1        0.0579
     32 C          -0.1813   -2.2481    1.8340 C.3     1  LIG1       -0.0513
     33 C           2.1686    2.8410    2.4088 C.3     1  LIG1        0.0261
     34 C           3.4488   -0.7884    1.2834 C.2     1  LIG1        0.0626
     35 C           2.3559    3.2215    3.8540 C.ar    1  LIG1       -0.0158
     36 C          -0.4070   -3.5689    1.0975 C.3     1  LIG1       -0.0558
     37 C           1.4592    3.9636    4.6809 C.ar    1  LIG1        0.0038
     38 C           3.4071    2.8452    4.6580 C.ar    1  LIG1        0.0202
     39 C           1.9706    3.9508    5.9870 C.ar    1  LIG1        0.0598
     40 C           0.0994   -4.7828    1.8643 C.3     1  LIG1       -0.0653
     41 C           0.2255    4.6040    4.4287 C.ar    1  LIG1       -0.0523
     42 C           1.2395    4.5338    7.0460 C.ar    1  LIG1       -0.0371
     43 C          -0.4893    5.1835    5.4789 C.ar    1  LIG1       -0.0611
     44 C           4.1550    3.0927    6.9903 C.2     1  LIG1        0.4196
     45 C           0.0095    5.1375    6.7722 C.ar    1  LIG1       -0.0598
     46 C           4.6739    3.4404    9.2308 C.3     1  LIG1        0.0835
     47 H           0.2228   -0.6962   -3.6140 H       1  LIG1        0.1510
     48 H1          0.5052    1.5539    4.0954 H       1  LIG1        0.2002
     49 H2         -0.1442    0.4348    3.0426 H       1  LIG1        0.2002
     50 H3         -0.3784    2.0583    2.7602 H       1  LIG1        0.2002
     51 H           3.9995   -1.8225   -4.5662 H       1  LIG1        0.0498
     52 H           0.3333   -1.6603   -5.3411 H       1  LIG1        0.0498
     53 H           4.5794   -2.9965   -6.4416 H       1  LIG1        0.0283
     54 H           3.9273   -1.8184   -7.5590 H       1  LIG1        0.0283
     55 H           1.6153   -1.6588   -8.0443 H       1  LIG1        0.0283
     56 H           0.4281   -2.7401   -7.3473 H       1  LIG1        0.0283
     57 H           2.2318   -3.7320   -5.8780 H       1  LIG1        0.0266
     58 H           2.5926   -3.8758   -7.6045 H       1  LIG1        0.0266
     59 HA          1.4217    1.4786   -1.9951 H       1  LIG1        0.0595
     60 H          -1.2076    1.3974   -1.1734 H       1  LIG1        0.0293
     61 H          -1.4663    0.7288   -2.7399 H       1  LIG1        0.0293
     62 H           4.1603    0.4629   -6.5963 H       1  LIG1        0.0248
     63 H           5.5456   -0.5114   -6.0609 H       1  LIG1        0.0248
     64 H           4.6936    0.5144   -4.9153 H       1  LIG1        0.0248
     65 H           1.2200    0.6399   -7.1599 H       1  LIG1        0.0248
     66 H           0.0592    0.7208   -5.8377 H       1  LIG1        0.0248
     67 H          -0.3476   -0.1881   -7.2813 H       1  LIG1        0.0248
     68 H          -3.0988    2.6473   -2.9455 H       1  LIG1        0.0235
     69 H          -2.5247    4.3214   -2.9241 H       1  LIG1        0.0235
     70 H          -2.5540    3.3799   -1.4279 H       1  LIG1        0.0235
     71 H           1.1001    3.5763   -2.3379 H       1  LIG1        0.0235
     72 H          -0.1004    3.9506   -1.0845 H       1  LIG1        0.0235
     73 H          -0.0903    4.8417   -2.5992 H       1  LIG1        0.0235
     74 H           0.3286    2.5723   -4.5542 H       1  LIG1        0.0235
     75 H          -0.9032    3.8175   -4.7303 H       1  LIG1        0.0235
     76 H          -1.3782    2.1199   -4.7908 H       1  LIG1        0.0235
     77 HA          2.1696   -1.9812    0.0622 H       1  LIG1        0.0567
     78 H           1.3331   -1.2004    2.8969 H       1  LIG1        0.0287
     79 H           1.8520   -2.7465    2.3460 H       1  LIG1        0.0287
     80 HA          2.2047    0.6862    2.7143 H       1  LIG1        0.0952
     81 H          -0.7243   -1.4450    1.3246 H       1  LIG1        0.0266
     82 H          -0.6429   -2.3309    2.8272 H       1  LIG1        0.0266
     83 H           1.5353    3.5928    1.9212 H       1  LIG1        0.0374
     84 H           3.1342    2.8869    1.8910 H       1  LIG1        0.0374
     85 H           0.0600   -3.5484    0.1091 H       1  LIG1        0.0263
     86 H          -1.4857   -3.6885    0.9399 H       1  LIG1        0.0263
     87 H           4.3009    2.2752    4.4236 H       1  LIG1        0.0818
     88 H           1.1926   -4.8166    1.8831 H       1  LIG1        0.0230
     89 H          -0.2489   -5.7023    1.3835 H       1  LIG1        0.0230
     90 H          -0.2648   -4.7813    2.8967 H       1  LIG1        0.0230
     91 H          -0.1731    4.6691    3.4193 H       1  LIG1        0.0624
     92 H           1.6044    4.5313    8.0685 H       1  LIG1        0.0638
     93 H          -1.4359    5.6827    5.2832 H       1  LIG1        0.0618
     94 H          -0.5529    5.5935    7.5853 H       1  LIG1        0.0618
     95 H           4.2746    3.9346   10.1208 H       1  LIG1        0.0661
     96 H           5.6426    3.8898    8.9904 H       1  LIG1        0.0661
     97 H           4.7844    2.3731    9.4474 H       1  LIG1        0.0661
@<TRIPOS>BOND
     1     1    21    2
     2     2    24    2
     3     3    30    2
     4     4    34   ar
     5     5    34   ar
     6     6    44    1
     7     6    46    1
     8     7    44    2
     9     8    13    1
    10     8    14    1
    11     9    21   am
    12    10    24   am
    13    10    30   am
    14    12    39   ar
    15    12    38   ar
    16    12    44   am
    17    13    15    1
    18    13    22    1
    19    14    16    1
    20    14    23    1
    21    15    17    1
    22    16    17    1
    23    18     9    1
    24    18    24    1
    25    18    20    1
    26    19    20    1
    27    19    27    1
    28    19    26    1
    29    19    25    1
    30    21     8   am
    31    28    34    1
    32    28    29    1
    33    28    10    1
    34    29    32    1
    35    31    33    1
    36    31    11    1
    37    31    30    1
    38    32    36    1
    39    33    35    1
    40    35    38   ar
    41    35    37   ar
    42    36    40    1
    43    37    39   ar
    44    37    41   ar
    45    39    42   ar
    46    41    43   ar
    47    42    45   ar
    48    43    45   ar
    49     9    47    1
    50    11    48    1
    51    11    49    1
    52    11    50    1
    53    13    51    1
    54    14    52    1
    55    15    53    1
    56    15    54    1
    57    16    55    1
    58    16    56    1
    59    17    57    1
    60    17    58    1
    61    18    59    1
    62    20    60    1
    63    20    61    1
    64    22    62    1
    65    22    63    1
    66    22    64    1
    67    23    65    1
    68    23    66    1
    69    23    67    1
    70    25    68    1
    71    25    69    1
    72    25    70    1
    73    26    71    1
    74    26    72    1
    75    26    73    1
    76    27    74    1
    77    27    75    1
    78    27    76    1
    79    28    77    1
    80    29    78    1
    81    29    79    1
    82    31    80    1
    83    32    81    1
    84    32    82    1
    85    33    83    1
    86    33    84    1
    87    36    85    1
    88    36    86    1
    89    38    87    1
    90    40    88    1
    91    40    89    1
    92    40    90    1
    93    41    91    1
    94    42    92    1
    95    43    93    1
    96    45    94    1
    97    46    95    1
    98    46    96    1
    99    46    97    1
@<TRIPOS>MOLECULE
23693553
 97 99 0 0 0
SMALL
GASTEIGER

@<TRIPOS>ATOM
      1 O           0.3838   -4.4186    0.4598 O.2     1  LIG1       -0.2526
      2 O           0.5972    0.0784   -2.0846 O.2     1  LIG1       -0.2731
      3 O           0.6184    1.5384    1.4939 O.2     1  LIG1       -0.2689
      4 O           3.4825   -0.5154   -0.7270 O.co2   1  LIG1       -0.5479
      5 OXT         4.2990   -1.7309    1.0085 O.co2   1  LIG1       -0.5479
      6 O           4.9685    6.7608    3.6792 O.3     1  LIG1       -0.4515
      7 O           3.0924    7.6988    2.7128 O.2     1  LIG1       -0.2227
      8 N           2.5562   -4.8886   -0.1086 N.am    1  LIG1       -0.2801
      9 N           1.3424   -3.1684   -1.1739 N.am    1  LIG1       -0.2879
     10 N           1.0661   -0.2620    0.1407 N.am    1  LIG1       -0.2273
     11 N           2.7745    1.7266   -1.4195 N.4     1  LIG1        0.2276
     12 N           3.6286    5.5065    2.3043 N.ar    1  LIG1       -0.2526
     13 C           3.7724   -4.6603   -0.9248 C.3     1  LIG1        0.0249
     14 C           2.5840   -5.8477    1.0219 C.3     1  LIG1        0.0249
     15 C           5.0868   -5.1899   -0.3324 C.3     1  LIG1       -0.0344
     16 C           3.9692   -6.2519    1.5488 C.3     1  LIG1       -0.0344
     17 C           5.0459   -5.2555    1.1799 C.3     1  LIG1       -0.0497
     18 CA          0.2599   -2.1866   -1.3837 C.3     1  LIG1        0.1019
     19 C          -2.3720   -1.7049   -1.1983 C.3     1  LIG1       -0.0356
     20 C          -1.1120   -2.5124   -0.7518 C.3     1  LIG1       -0.0210
     21 C           1.3590   -4.1822   -0.2502 C.2     1  LIG1        0.3033
     22 C           3.5974   -5.2172   -2.3424 C.3     1  LIG1       -0.0464
     23 C           1.7717   -7.1126    0.7113 C.3     1  LIG1       -0.0464
     24 C           0.6857   -0.7116   -1.1295 C.2     1  LIG1        0.2429
     25 C          -2.4227   -0.3067   -0.5582 C.3     1  LIG1       -0.0600
     26 C          -2.4704   -1.5752   -2.7262 C.3     1  LIG1       -0.0600
     27 C          -3.6156   -2.4804   -0.7039 C.3     1  LIG1       -0.0600
     28 CA          1.9392   -1.1287    0.9906 C.3     1  LIG1        0.0730
     29 C           2.0563   -0.7884    2.4878 C.3     1  LIG1       -0.0286
     30 C           1.0891    1.1077    0.4370 C.2     1  LIG1        0.2708
     31 CA          1.5500    2.1101   -0.6496 C.3     1  LIG1        0.0579
     32 C           0.7616   -1.0302    3.2702 C.3     1  LIG1       -0.0513
     33 C           1.6487    3.5588   -0.1521 C.3     1  LIG1        0.0261
     34 C           3.3834   -1.1612    0.3768 C.2     1  LIG1        0.0626
     35 C           2.6554    4.0087    0.8770 C.ar    1  LIG1       -0.0158
     36 C           0.9486   -0.8811    4.7843 C.3     1  LIG1       -0.0558
     37 C           3.7589    3.3774    1.5365 C.ar    1  LIG1        0.0038
     38 C           2.6073    5.2898    1.3944 C.ar    1  LIG1        0.0202
     39 C           4.3330    4.3072    2.4265 C.ar    1  LIG1        0.0598
     40 C           1.5253    0.4620    5.2080 C.3     1  LIG1       -0.0653
     41 C           4.3399    2.0936    1.4889 C.ar    1  LIG1       -0.0523
     42 C           5.4248    3.9523    3.2511 C.ar    1  LIG1       -0.0371
     43 C           5.4229    1.7428    2.2976 C.ar    1  LIG1       -0.0611
     44 C           3.8459    6.7577    2.9232 C.2     1  LIG1        0.4196
     45 C           5.9572    2.6657    3.1742 C.ar    1  LIG1       -0.0598
     46 C           5.2744    8.0315    4.2515 C.3     1  LIG1        0.0835
     47 H           2.2034   -2.9579   -1.6523 H       1  LIG1        0.1510
     48 H1          2.5812    1.6365   -2.4199 H       1  LIG1        0.2002
     49 H2          3.0808    0.7447   -1.1691 H       1  LIG1        0.2002
     50 H3          3.6037    2.2992   -1.2462 H       1  LIG1        0.2002
     51 H           3.9012   -3.5771   -1.0064 H       1  LIG1        0.0498
     52 H           2.0836   -5.3415    1.8599 H       1  LIG1        0.0498
     53 H           5.9174   -4.5517   -0.6581 H       1  LIG1        0.0283
     54 H           5.3063   -6.1921   -0.7245 H       1  LIG1        0.0283
     55 H           4.2531   -7.2377    1.1565 H       1  LIG1        0.0283
     56 H           3.9251   -6.3691    2.6388 H       1  LIG1        0.0283
     57 H           4.8391   -4.2745    1.6186 H       1  LIG1        0.0266
     58 H           6.0139   -5.5915    1.5673 H       1  LIG1        0.0266
     59 HA          0.1291   -2.2501   -2.4724 H       1  LIG1        0.0595
     60 H          -1.0336   -2.4407    0.3408 H       1  LIG1        0.0293
     61 H          -1.3245   -3.5649   -0.9858 H       1  LIG1        0.0293
     62 H           3.4465   -6.3019   -2.3204 H       1  LIG1        0.0248
     63 H           4.4830   -5.0071   -2.9521 H       1  LIG1        0.0248
     64 H           2.7341   -4.7799   -2.8522 H       1  LIG1        0.0248
     65 H           2.1996   -7.6532   -0.1394 H       1  LIG1        0.0248
     66 H           0.7313   -6.8835    0.4626 H       1  LIG1        0.0248
     67 H           1.7602   -7.7848    1.5765 H       1  LIG1        0.0248
     68 H          -2.2370   -0.3566    0.5204 H       1  LIG1        0.0235
     69 H          -3.4074    0.1543   -0.7006 H       1  LIG1        0.0235
     70 H          -1.6969    0.3800   -0.9976 H       1  LIG1        0.0235
     71 H          -2.4099   -2.5559   -3.2108 H       1  LIG1        0.0235
     72 H          -1.6740   -0.9464   -3.1353 H       1  LIG1        0.0235
     73 H          -3.4217   -1.1174   -3.0219 H       1  LIG1        0.0235
     74 H          -3.6672   -3.4775   -1.1559 H       1  LIG1        0.0235
     75 H          -4.5425   -1.9555   -0.9623 H       1  LIG1        0.0235
     76 H          -3.5954   -2.6058    0.3846 H       1  LIG1        0.0235
     77 HA          1.5410   -2.1338    0.9601 H       1  LIG1        0.0567
     78 H           2.4021    0.2401    2.6211 H       1  LIG1        0.0287
     79 H           2.8297   -1.4205    2.9433 H       1  LIG1        0.0287
     80 HA          0.7446    2.1510   -1.3914 H       1  LIG1        0.0952
     81 H           0.3985   -2.0459    3.0696 H       1  LIG1        0.0266
     82 H          -0.0268   -0.3493    2.9357 H       1  LIG1        0.0266
     83 H           0.6573    3.8376    0.2364 H       1  LIG1        0.0374
     84 H           1.8005    4.1986   -1.0344 H       1  LIG1        0.0374
     85 H           1.6008   -1.6816    5.1535 H       1  LIG1        0.0263
     86 H          -0.0245   -1.0186    5.2698 H       1  LIG1        0.0263
     87 H           1.9177    6.0996    1.1821 H       1  LIG1        0.0818
     88 H           2.5692    0.5646    4.8944 H       1  LIG1        0.0230
     89 H           1.5035    0.5535    6.2985 H       1  LIG1        0.0230
     90 H           0.9520    1.2915    4.7831 H       1  LIG1        0.0230
     91 H           3.9537    1.3213    0.8479 H       1  LIG1        0.0624
     92 H           5.8607    4.6483    3.9608 H       1  LIG1        0.0638
     93 H           5.8260    0.7315    2.2439 H       1  LIG1        0.0618
     94 H           6.7904    2.3841    3.8136 H       1  LIG1        0.0618
     95 H           6.2364    7.9484    4.7649 H       1  LIG1        0.0661
     96 H           4.5113    8.3132    4.9831 H       1  LIG1        0.0661
     97 H           5.3661    8.7955    3.4724 H       1  LIG1        0.0661
@<TRIPOS>BOND
     1     1    21    2
     2     2    24    2
     3     3    30    2
     4     4    34   ar
     5     5    34   ar
     6     6    44    1
     7     6    46    1
     8     7    44    2
     9     8    13    1
    10     8    14    1
    11     9    21   am
    12    10    24   am
    13    10    30   am
    14    12    39   ar
    15    12    38   ar
    16    12    44   am
    17    13    15    1
    18    13    22    1
    19    14    16    1
    20    14    23    1
    21    15    17    1
    22    16    17    1
    23    18     9    1
    24    18    24    1
    25    18    20    1
    26    19    20    1
    27    19    27    1
    28    19    26    1
    29    19    25    1
    30    21     8   am
    31    28    34    1
    32    28    29    1
    33    28    10    1
    34    29    32    1
    35    31    33    1
    36    31    11    1
    37    31    30    1
    38    32    36    1
    39    33    35    1
    40    35    38   ar
    41    35    37   ar
    42    36    40    1
    43    37    39   ar
    44    37    41   ar
    45    39    42   ar
    46    41    43   ar
    47    42    45   ar
    48    43    45   ar
    49     9    47    1
    50    11    48    1
    51    11    49    1
    52    11    50    1
    53    13    51    1
    54    14    52    1
    55    15    53    1
    56    15    54    1
    57    16    55    1
    58    16    56    1
    59    17    57    1
    60    17    58    1
    61    18    59    1
    62    20    60    1
    63    20    61    1
    64    22    62    1
    65    22    63    1
    66    22    64    1
    67    23    65    1
    68    23    66    1
    69    23    67    1
    70    25    68    1
    71    25    69    1
    72    25    70    1
    73    26    71    1
    74    26    72    1
    75    26    73    1
    76    27    74    1
    77    27    75    1
    78    27    76    1
    79    28    77    1
    80    29    78    1
    81    29    79    1
    82    31    80    1
    83    32    81    1
    84    32    82    1
    85    33    83    1
    86    33    84    1
    87    36    85    1
    88    36    86    1
    89    38    87    1
    90    40    88    1
    91    40    89    1
    92    40    90    1
    93    41    91    1
    94    42    92    1
    95    43    93    1
    96    45    94    1
    97    46    95    1
    98    46    96    1
    99    46    97    1
@<TRIPOS>MOLECULE
23693553
 97 99 0 0 0
SMALL
GASTEIGER

@<TRIPOS>ATOM
      1 O          -1.1592   -0.8521    0.6576 O.2     1  LIG1       -0.2526
      2 O           0.6544    0.2338   -2.1492 O.2     1  LIG1       -0.2731
      3 O           0.7562    1.3449    1.5988 O.2     1  LIG1       -0.2689
      4 O           4.4997   -1.7278    0.9072 O.co2   1  LIG1       -0.5479
      5 OXT         3.9011    0.2170   -0.1376 O.co2   1  LIG1       -0.5479
      6 O           5.9536    4.4883    4.0224 O.3     1  LIG1       -0.4515
      7 O           5.7366    2.3771    3.1115 O.2     1  LIG1       -0.2227
      8 N          -2.4814   -2.7188    0.9167 N.am    1  LIG1       -0.2801
      9 N          -1.0635   -2.4153   -0.9523 N.am    1  LIG1       -0.2879
     10 N           1.3155   -0.2292   -0.0082 N.am    1  LIG1       -0.2273
     11 N           2.7424    2.0023   -1.2901 N.4     1  LIG1        0.2276
     12 N           4.2603    4.0402    2.5442 N.ar    1  LIG1       -0.2526
     13 C          -3.1078   -3.9297    0.3257 C.3     1  LIG1        0.0249
     14 C          -2.4722   -2.5173    2.3984 C.3     1  LIG1        0.0249
     15 C          -3.9807   -4.7603    1.2743 C.3     1  LIG1       -0.0344
     16 C          -3.2931   -3.5124    3.2352 C.3     1  LIG1       -0.0344
     17 C          -3.3353   -4.8970    2.6340 C.3     1  LIG1       -0.0497
     18 CA          0.2848   -2.0861   -1.4649 C.3     1  LIG1        0.1019
     19 C           0.5083   -3.8036   -3.5287 C.3     1  LIG1       -0.0356
     20 C           0.3165   -2.3496   -3.0025 C.3     1  LIG1       -0.0210
     21 C          -1.5510   -1.9292    0.2288 C.2     1  LIG1        0.3033
     22 C          -3.9718   -3.5717   -0.8949 C.3     1  LIG1       -0.0464
     23 C          -2.9043   -1.1049    2.8389 C.3     1  LIG1       -0.0464
     24 C           0.7656   -0.5995   -1.2367 C.2     1  LIG1        0.2429
     25 C           1.8556   -4.3847   -3.0688 C.3     1  LIG1       -0.0600
     26 C          -0.6207   -4.7532   -3.1062 C.3     1  LIG1       -0.0600
     27 C           0.5152   -3.7355   -5.0734 C.3     1  LIG1       -0.0600
     28 CA          2.1787   -1.1486    0.7959 C.3     1  LIG1        0.0730
     29 C           1.7802   -1.3510    2.2704 C.3     1  LIG1       -0.0286
     30 C           1.1631    1.0802    0.4668 C.2     1  LIG1        0.2708
     31 CA          1.4717    2.2211   -0.5299 C.3     1  LIG1        0.0579
     32 C           2.4854   -0.4771    3.3156 C.3     1  LIG1       -0.0513
     33 C           1.4467    3.6181    0.1043 C.3     1  LIG1        0.0261
     34 C           3.6859   -0.8495    0.5346 C.2     1  LIG1        0.0626
     35 C           2.5120    4.0142    1.0851 C.ar    1  LIG1       -0.0158
     36 C           2.1026   -0.8420    4.7567 C.3     1  LIG1       -0.0558
     37 C           2.5915    5.3055    1.6965 C.ar    1  LIG1        0.0038
     38 C           3.5395    3.2766    1.6258 C.ar    1  LIG1        0.0202
     39 C           3.6659    5.3070    2.5962 C.ar    1  LIG1        0.0598
     40 C           0.6112   -0.7632    5.0494 C.3     1  LIG1       -0.0653
     41 C           1.8044    6.4726    1.5642 C.ar    1  LIG1       -0.0523
     42 C           3.9540    6.4545    3.3649 C.ar    1  LIG1       -0.0371
     43 C           2.0947    7.6063    2.3246 C.ar    1  LIG1       -0.0611
     44 C           5.3777    3.5374    3.2504 C.2     1  LIG1        0.4196
     45 C           3.1570    7.5936    3.2154 C.ar    1  LIG1       -0.0598
     46 C           7.1102    4.0588    4.7433 C.3     1  LIG1        0.0835
     47 H          -1.3262   -3.3618   -1.1371 H       1  LIG1        0.1510
     48 H1          2.5623    1.4466   -2.1322 H       1  LIG1        0.2002
     49 H2          3.3695    1.3524   -0.7319 H       1  LIG1        0.2002
     50 H3          3.3092    2.8265   -1.4823 H       1  LIG1        0.2002
     51 H          -2.2883   -4.5873    0.0106 H       1  LIG1        0.0498
     52 H          -1.4225   -2.6515    2.6962 H       1  LIG1        0.0498
     53 H          -4.1506   -5.7543    0.8429 H       1  LIG1        0.0283
     54 H          -4.9709   -4.2982    1.3866 H       1  LIG1        0.0283
     55 H          -4.3234   -3.1471    3.3467 H       1  LIG1        0.0283
     56 H          -2.8795   -3.5620    4.2505 H       1  LIG1        0.0283
     57 H          -2.3305   -5.3272    2.5572 H       1  LIG1        0.0266
     58 H          -3.9334   -5.5599    3.2689 H       1  LIG1        0.0266
     59 HA          0.9677   -2.7850   -0.9913 H       1  LIG1        0.0595
     60 H           1.1418   -1.7648   -3.4337 H       1  LIG1        0.0293
     61 H          -0.6016   -1.9333   -3.4423 H       1  LIG1        0.0293
     62 H          -4.7719   -2.8780   -0.6126 H       1  LIG1        0.0248
     63 H          -4.4327   -4.4697   -1.3205 H       1  LIG1        0.0248
     64 H          -3.4022   -3.0932   -1.6949 H       1  LIG1        0.0248
     65 H          -3.8425   -0.8139    2.3559 H       1  LIG1        0.0248
     66 H          -2.1556   -0.3423    2.6127 H       1  LIG1        0.0248
     67 H          -3.0471   -1.0614    3.9252 H       1  LIG1        0.0248
     68 H           2.6845   -3.7176   -3.3299 H       1  LIG1        0.0235
     69 H           2.0479   -5.3535   -3.5447 H       1  LIG1        0.0235
     70 H           1.8809   -4.5465   -1.9867 H       1  LIG1        0.0235
     71 H          -1.6044   -4.3122   -3.3005 H       1  LIG1        0.0235
     72 H          -0.5559   -5.0141   -2.0458 H       1  LIG1        0.0235
     73 H          -0.5701   -5.6968   -3.6625 H       1  LIG1        0.0235
     74 H          -0.4321   -3.3374   -5.4551 H       1  LIG1        0.0235
     75 H           0.6613   -4.7268   -5.5174 H       1  LIG1        0.0235
     76 H           1.3209   -3.0886   -5.4392 H       1  LIG1        0.0235
     77 HA          2.0760   -2.1405    0.3560 H       1  LIG1        0.0567
     78 H           2.0006   -2.3960    2.5291 H       1  LIG1        0.0287
     79 H           0.6956   -1.2470    2.3659 H       1  LIG1        0.0287
     80 HA          0.6722    2.2534   -1.2763 H       1  LIG1        0.0952
     81 H           2.2767    0.5828    3.1582 H       1  LIG1        0.0266
     82 H           3.5711   -0.5899    3.2253 H       1  LIG1        0.0266
     83 H           0.4743    3.7569    0.5965 H       1  LIG1        0.0374
     84 H           1.4740    4.3529   -0.7137 H       1  LIG1        0.0374
     85 H           2.6289   -0.1607    5.4359 H       1  LIG1        0.0263
     86 H           2.4592   -1.8530    4.9863 H       1  LIG1        0.0263
     87 H           3.8400    2.2447    1.4842 H       1  LIG1        0.0818
     88 H           0.1968    0.2043    4.7500 H       1  LIG1        0.0230
     89 H           0.4316   -0.8941    6.1216 H       1  LIG1        0.0230
     90 H           0.0603   -1.5536    4.5308 H       1  LIG1        0.0230
     91 H           0.9588    6.4916    0.8823 H       1  LIG1        0.0624
     92 H           4.7680    6.4788    4.0822 H       1  LIG1        0.0638
     93 H           1.4791    8.4966    2.2254 H       1  LIG1        0.0618
     94 H           3.3702    8.4769    3.8134 H       1  LIG1        0.0618
     95 H           7.7661    4.9247    4.8707 H       1  LIG1        0.0661
     96 H           7.6748    3.2825    4.2174 H       1  LIG1        0.0661
     97 H           6.8051    3.7035    5.7314 H       1  LIG1        0.0661
@<TRIPOS>BOND
     1     1    21    2
     2     2    24    2
     3     3    30    2
     4     4    34   ar
     5     5    34   ar
     6     6    44    1
     7     6    46    1
     8     7    44    2
     9     8    13    1
    10     8    14    1
    11     9    21   am
    12    10    24   am
    13    10    30   am
    14    12    39   ar
    15    12    38   ar
    16    12    44   am
    17    13    15    1
    18    13    22    1
    19    14    16    1
    20    14    23    1
    21    15    17    1
    22    16    17    1
    23    18     9    1
    24    18    24    1
    25    18    20    1
    26    19    20    1
    27    19    27    1
    28    19    26    1
    29    19    25    1
    30    21     8   am
    31    28    34    1
    32    28    29    1
    33    28    10    1
    34    29    32    1
    35    31    33    1
    36    31    11    1
    37    31    30    1
    38    32    36    1
    39    33    35    1
    40    35    38   ar
    41    35    37   ar
    42    36    40    1
    43    37    39   ar
    44    37    41   ar
    45    39    42   ar
    46    41    43   ar
    47    42    45   ar
    48    43    45   ar
    49     9    47    1
    50    11    48    1
    51    11    49    1
    52    11    50    1
    53    13    51    1
    54    14    52    1
    55    15    53    1
    56    15    54    1
    57    16    55    1
    58    16    56    1
    59    17    57    1
    60    17    58    1
    61    18    59    1
    62    20    60    1
    63    20    61    1
    64    22    62    1
    65    22    63    1
    66    22    64    1
    67    23    65    1
    68    23    66    1
    69    23    67    1
    70    25    68    1
    71    25    69    1
    72    25    70    1
    73    26    71    1
    74    26    72    1
    75    26    73    1
    76    27    74    1
    77    27    75    1
    78    27    76    1
    79    28    77    1
    80    29    78    1
    81    29    79    1
    82    31    80    1
    83    32    81    1
    84    32    82    1
    85    33    83    1
    86    33    84    1
    87    36    85    1
    88    36    86    1
    89    38    87    1
    90    40    88    1
    91    40    89    1
    92    40    90    1
    93    41    91    1
    94    42    92    1
    95    43    93    1
    96    45    94    1
    97    46    95    1
    98    46    96    1
    99    46    97    1
@<TRIPOS>MOLECULE
23693553
 97 99 0 0 0
SMALL
GASTEIGER

@<TRIPOS>ATOM
      1 O          -2.3390   -2.3966   -1.1221 O.2     1  LIG1       -0.2526
      2 O          -0.1239    0.2246   -1.6860 O.2     1  LIG1       -0.2731
      3 O           1.8411    1.3833    1.6185 O.2     1  LIG1       -0.2689
      4 O           4.5027   -1.8429    0.3649 O.co2   1  LIG1       -0.5479
      5 OXT         3.6403   -0.0712   -0.8012 O.co2   1  LIG1       -0.5479
      6 O          -3.8988    5.9563    2.3117 O.3     1  LIG1       -0.4515
      7 O          -2.0123    7.2761    2.1092 O.2     1  LIG1       -0.2227
      8 N          -2.0025   -3.9088    0.5747 N.am    1  LIG1       -0.2801
      9 N          -0.1995   -2.9137   -0.5559 N.am    1  LIG1       -0.2879
     10 N           1.2244   -0.2874    0.1033 N.am    1  LIG1       -0.2273
     11 N           2.8284    2.2144   -1.1247 N.4     1  LIG1        0.2276
     12 N          -1.9261    5.0378    1.6197 N.ar    1  LIG1       -0.2526
     13 C          -1.1745   -4.3414    1.7206 C.3     1  LIG1        0.0249
     14 C          -3.4431   -4.2474    0.5249 C.3     1  LIG1        0.0249
     15 C          -1.9345   -4.5606    3.0458 C.3     1  LIG1       -0.0344
     16 C          -4.0597   -4.6981    1.8520 C.3     1  LIG1       -0.0344
     17 C          -3.3591   -4.0398    3.0228 C.3     1  LIG1       -0.0497
     18 CA          0.4832   -2.0871   -1.5798 C.3     1  LIG1        0.1019
     19 C           0.5676   -1.7616   -4.2719 C.3     1  LIG1       -0.0356
     20 C          -0.1730   -2.2436   -2.9847 C.3     1  LIG1       -0.0210
     21 C          -1.5574   -3.0261   -0.4154 C.2     1  LIG1        0.3033
     22 C          -0.3159   -5.5734    1.4180 C.3     1  LIG1       -0.0464
     23 C          -3.7220   -5.2907   -0.5623 C.3     1  LIG1       -0.0464
     24 C           0.5209   -0.6301   -1.0672 C.2     1  LIG1        0.2429
     25 C           1.9996   -2.3023   -4.3462 C.3     1  LIG1       -0.0600
     26 C          -0.2313   -2.3013   -5.4832 C.3     1  LIG1       -0.0600
     27 C           0.6070   -0.2298   -4.4101 C.3     1  LIG1       -0.0600
     28 CA          2.1958   -1.2426    0.7192 C.3     1  LIG1        0.0730
     29 C           2.3479   -1.2094    2.2623 C.3     1  LIG1       -0.0286
     30 C           1.4275    1.0566    0.4989 C.2     1  LIG1        0.2708
     31 CA          1.4110    2.1640   -0.5745 C.3     1  LIG1        0.0579
     32 C           1.0241   -1.1261    3.0389 C.3     1  LIG1       -0.0513
     33 C           1.0882    3.5351    0.0405 C.3     1  LIG1        0.0261
     34 C           3.6022   -1.0317    0.0484 C.2     1  LIG1        0.0626
     35 C          -0.2816    3.7944    0.6376 C.ar    1  LIG1       -0.0158
     36 C           1.2090   -0.8270    4.5293 C.3     1  LIG1       -0.0558
     37 C          -1.4268    2.9609    0.8887 C.ar    1  LIG1        0.0038
     38 C          -0.6298    5.0408    1.1272 C.ar    1  LIG1        0.0202
     39 C          -2.3927    3.7251    1.5648 C.ar    1  LIG1        0.0598
     40 C           1.7827   -1.9995    5.3073 C.3     1  LIG1       -0.0653
     41 C          -1.7659    1.6142    0.6390 C.ar    1  LIG1       -0.0523
     42 C          -3.5896    3.1432    2.0457 C.ar    1  LIG1       -0.0371
     43 C          -2.9599    1.0400    1.0769 C.ar    1  LIG1       -0.0611
     44 C          -2.5910    6.2033    2.0536 C.2     1  LIG1        0.4196
     45 C          -3.8578    1.7975    1.7953 C.ar    1  LIG1       -0.0598
     46 C          -4.6840    7.0975    2.6511 C.3     1  LIG1        0.0835
     47 H           0.3607   -3.6325   -0.1358 H       1  LIG1        0.1510
     48 H1          2.9455    2.6637   -2.0310 H       1  LIG1        0.2002
     49 H2          3.1792    1.2144   -1.2302 H       1  LIG1        0.2002
     50 H3          3.4996    2.5616   -0.4308 H       1  LIG1        0.2002
     51 H          -0.4830   -3.5166    1.9003 H       1  LIG1        0.0498
     52 H          -3.9780   -3.3319    0.2387 H       1  LIG1        0.0498
     53 H          -1.3812   -4.0952    3.8705 H       1  LIG1        0.0283
     54 H          -1.9682   -5.6325    3.2857 H       1  LIG1        0.0283
     55 H          -3.9990   -5.7893    1.9575 H       1  LIG1        0.0283
     56 H          -5.1282   -4.4497    1.8622 H       1  LIG1        0.0283
     57 H          -3.3771   -2.9479    2.9304 H       1  LIG1        0.0266
     58 H          -3.8665   -4.2998    3.9584 H       1  LIG1        0.0266
     59 HA          1.5085   -2.4621   -1.6394 H       1  LIG1        0.0595
     60 H          -1.1510   -1.7470   -2.9901 H       1  LIG1        0.0293
     61 H          -0.3842   -3.3154   -3.1132 H       1  LIG1        0.0293
     62 H          -0.9381   -6.4566    1.2468 H       1  LIG1        0.0248
     63 H           0.3516   -5.7807    2.2633 H       1  LIG1        0.0248
     64 H           0.3141   -5.4474    0.5350 H       1  LIG1        0.0248
     65 H          -3.2055   -6.2322   -0.3459 H       1  LIG1        0.0248
     66 H          -3.3813   -4.9469   -1.5443 H       1  LIG1        0.0248
     67 H          -4.7951   -5.4988   -0.6348 H       1  LIG1        0.0248
     68 H           2.6308   -1.8749   -3.5603 H       1  LIG1        0.0235
     69 H           2.4631   -2.0482   -5.3070 H       1  LIG1        0.0235
     70 H           2.0170   -3.3922   -4.2456 H       1  LIG1        0.0235
     71 H          -1.2670   -1.9408   -5.4638 H       1  LIG1        0.0235
     72 H          -0.2595   -3.3965   -5.4855 H       1  LIG1        0.0235
     73 H           0.2117   -1.9799   -6.4327 H       1  LIG1        0.0235
     74 H          -0.3877    0.2089   -4.2707 H       1  LIG1        0.0235
     75 H           0.9487    0.0684   -5.4088 H       1  LIG1        0.0235
     76 H           1.2977    0.2270   -3.6954 H       1  LIG1        0.0235
     77 HA          1.9083   -2.2642    0.4737 H       1  LIG1        0.0567
     78 H           3.0177   -0.3961    2.5661 H       1  LIG1        0.0287
     79 H           2.8716   -2.1244    2.5709 H       1  LIG1        0.0287
     80 HA          0.7804    2.0225   -1.4399 H       1  LIG1        0.0952
     81 H           0.4766   -2.0619    2.9305 H       1  LIG1        0.0266
     82 H           0.3774   -0.3449    2.6286 H       1  LIG1        0.0266
     83 H           1.2418    4.2924   -0.7427 H       1  LIG1        0.0374
     84 H           1.8289    3.7704    0.8190 H       1  LIG1        0.0374
     85 H           0.2304   -0.5764    4.9574 H       1  LIG1        0.0263
     86 H           1.8458    0.0552    4.6628 H       1  LIG1        0.0263
     87 H          -0.0650    5.9656    1.1472 H       1  LIG1        0.0818
     88 H           1.1533   -2.8881    5.1938 H       1  LIG1        0.0230
     89 H           1.8302   -1.7552    6.3735 H       1  LIG1        0.0230
     90 H           2.7944   -2.2456    4.9732 H       1  LIG1        0.0230
     91 H          -1.1164    0.9694    0.0869 H       1  LIG1        0.0624
     92 H          -4.3183    3.7141    2.6110 H       1  LIG1        0.0638
     93 H          -3.1685   -0.0037    0.8484 H       1  LIG1        0.0618
     94 H          -4.7801    1.3505    2.1544 H       1  LIG1        0.0618
     95 H          -5.7154    6.8920    2.3508 H       1  LIG1        0.0661
     96 H          -4.3530    8.0018    2.1319 H       1  LIG1        0.0661
     97 H          -4.6570    7.2437    3.7341 H       1  LIG1        0.0661
@<TRIPOS>BOND
     1     1    21    2
     2     2    24    2
     3     3    30    2
     4     4    34   ar
     5     5    34   ar
     6     6    44    1
     7     6    46    1
     8     7    44    2
     9     8    13    1
    10     8    14    1
    11     9    21   am
    12    10    24   am
    13    10    30   am
    14    12    39   ar
    15    12    38   ar
    16    12    44   am
    17    13    15    1
    18    13    22    1
    19    14    16    1
    20    14    23    1
    21    15    17    1
    22    16    17    1
    23    18     9    1
    24    18    24    1
    25    18    20    1
    26    19    20    1
    27    19    27    1
    28    19    26    1
    29    19    25    1
    30    21     8   am
    31    28    34    1
    32    28    29    1
    33    28    10    1
    34    29    32    1
    35    31    33    1
    36    31    11    1
    37    31    30    1
    38    32    36    1
    39    33    35    1
    40    35    38   ar
    41    35    37   ar
    42    36    40    1
    43    37    39   ar
    44    37    41   ar
    45    39    42   ar
    46    41    43   ar
    47    42    45   ar
    48    43    45   ar
    49     9    47    1
    50    11    48    1
    51    11    49    1
    52    11    50    1
    53    13    51    1
    54    14    52    1
    55    15    53    1
    56    15    54    1
    57    16    55    1
    58    16    56    1
    59    17    57    1
    60    17    58    1
    61    18    59    1
    62    20    60    1
    63    20    61    1
    64    22    62    1
    65    22    63    1
    66    22    64    1
    67    23    65    1
    68    23    66    1
    69    23    67    1
    70    25    68    1
    71    25    69    1
    72    25    70    1
    73    26    71    1
    74    26    72    1
    75    26    73    1
    76    27    74    1
    77    27    75    1
    78    27    76    1
    79    28    77    1
    80    29    78    1
    81    29    79    1
    82    31    80    1
    83    32    81    1
    84    32    82    1
    85    33    83    1
    86    33    84    1
    87    36    85    1
    88    36    86    1
    89    38    87    1
    90    40    88    1
    91    40    89    1
    92    40    90    1
    93    41    91    1
    94    42    92    1
    95    43    93    1
    96    45    94    1
    97    46    95    1
    98    46    96    1
    99    46    97    1
@<TRIPOS>MOLECULE
23693553
 97 99 0 0 0
SMALL
GASTEIGER

@<TRIPOS>ATOM
      1 O           0.4894   -4.2724    0.6287 O.2     1  LIG1       -0.2526
      2 O           1.1495   -0.0104   -2.1412 O.2     1  LIG1       -0.2731
      3 O           0.4036    1.5854    1.4197 O.2     1  LIG1       -0.2689
      4 O           4.3149   -1.7160    0.7202 O.co2   1  LIG1       -0.5479
      5 OXT         3.7870    0.3929    0.0429 O.co2   1  LIG1       -0.5479
      6 O           6.0371    4.7522    3.6245 O.3     1  LIG1       -0.4515
      7 O           6.4700    3.4982    1.7308 O.2     1  LIG1       -0.2227
      8 N           2.6116   -4.8678   -0.0184 N.am    1  LIG1       -0.2801
      9 N           1.4279   -3.1418   -1.0998 N.am    1  LIG1       -0.2879
     10 N           1.1544   -0.1694    0.1476 N.am    1  LIG1       -0.2273
     11 N           2.6646    1.9035   -1.4134 N.4     1  LIG1        0.2276
     12 N           4.3574    4.2894    2.1351 N.ar    1  LIG1       -0.2526
     13 C           3.8222   -4.6761   -0.8537 C.3     1  LIG1        0.0249
     14 C           2.6240   -5.8370    1.1010 C.3     1  LIG1        0.0249
     15 C           5.1365   -5.2097   -0.2639 C.3     1  LIG1       -0.0344
     16 C           4.0047   -6.2849    1.6007 C.3     1  LIG1       -0.0344
     17 C           5.0927   -5.2936    1.2477 C.3     1  LIG1       -0.0497
     18 CA          0.3801   -2.1315   -1.3119 C.3     1  LIG1        0.1019
     19 C          -2.2280   -1.5705   -1.1483 C.3     1  LIG1       -0.0356
     20 C          -0.9914   -2.3848   -0.6531 C.3     1  LIG1       -0.0210
     21 C           1.4453   -4.1060   -0.1262 C.2     1  LIG1        0.3033
     22 C           3.6221   -5.2554   -2.2591 C.3     1  LIG1       -0.0464
     23 C           1.7690   -7.0704    0.7818 C.3     1  LIG1       -0.0464
     24 C           0.9138   -0.6847   -1.1251 C.2     1  LIG1        0.2429
     25 C          -2.2395   -0.1434   -0.5781 C.3     1  LIG1       -0.0600
     26 C          -2.3108   -1.5029   -2.6814 C.3     1  LIG1       -0.0600
     27 C          -3.4952   -2.2901   -0.6316 C.3     1  LIG1       -0.0600
     28 CA          2.0701   -0.9202    1.0528 C.3     1  LIG1        0.0730
     29 C           2.0347   -0.6000    2.5547 C.3     1  LIG1       -0.0286
     30 C           1.0104    1.2011    0.4144 C.2     1  LIG1        0.2708
     31 CA          1.4136    2.2329   -0.6749 C.3     1  LIG1        0.0579
     32 C           0.7267   -1.0544    3.2143 C.3     1  LIG1       -0.0513
     33 C           1.4581    3.6806   -0.1603 C.3     1  LIG1        0.0261
     34 C           3.5533   -0.7272    0.6070 C.2     1  LIG1        0.0626
     35 C           2.4497    4.0404    0.9115 C.ar    1  LIG1       -0.0158
     36 C           0.7350   -0.8572    4.7324 C.3     1  LIG1       -0.0558
     37 C           2.1872    4.9112    2.0187 C.ar    1  LIG1        0.0038
     38 C           3.7778    3.6935    1.0149 C.ar    1  LIG1        0.0202
     39 C           3.3677    5.0542    2.7631 C.ar    1  LIG1        0.0598
     40 C           1.5831   -1.8900    5.4616 C.3     1  LIG1       -0.0653
     41 C           1.0298    5.6087    2.4367 C.ar    1  LIG1       -0.0523
     42 C           3.4000    5.8801    3.9070 C.ar    1  LIG1       -0.0371
     43 C           1.0677    6.4276    3.5669 C.ar    1  LIG1       -0.0611
     44 C           5.7219    4.1262    2.4687 C.2     1  LIG1        0.4196
     45 C           2.2413    6.5602    4.2918 C.ar    1  LIG1       -0.0598
     46 C           7.4006    4.6560    4.0454 C.3     1  LIG1        0.0835
     47 H           2.2887   -2.9773   -1.5933 H       1  LIG1        0.1510
     48 H1          3.1719    2.6646   -1.8582 H       1  LIG1        0.2002
     49 H2          2.4665    1.1440   -2.0830 H       1  LIG1        0.2002
     50 H3          3.3341    1.4204   -0.7503 H       1  LIG1        0.2002
     51 H           3.9667   -3.5973   -0.9612 H       1  LIG1        0.0498
     52 H           2.1503   -5.3282    1.9524 H       1  LIG1        0.0498
     53 H           5.9666   -4.5662   -0.5803 H       1  LIG1        0.0283
     54 H           5.3600   -6.2062   -0.6679 H       1  LIG1        0.0283
     55 H           4.2656   -7.2634    1.1755 H       1  LIG1        0.0283
     56 H           3.9696   -6.4327    2.6871 H       1  LIG1        0.0283
     57 H           4.8949   -4.3141    1.6963 H       1  LIG1        0.0266
     58 H           6.0569   -5.6442    1.6317 H       1  LIG1        0.0266
     59 HA          0.2197   -2.2209   -2.3944 H       1  LIG1        0.0595
     60 H          -0.9061   -2.2561    0.4336 H       1  LIG1        0.0293
     61 H          -1.2339   -3.4427   -0.8262 H       1  LIG1        0.0293
     62 H           3.4638   -6.3384   -2.2174 H       1  LIG1        0.0248
     63 H           4.5004   -5.0613   -2.8848 H       1  LIG1        0.0248
     64 H           2.7548   -4.8200   -2.7637 H       1  LIG1        0.0248
     65 H           2.1714   -7.6136   -0.0798 H       1  LIG1        0.0248
     66 H           0.7354   -6.8009    0.5441 H       1  LIG1        0.0248
     67 H           1.7422   -7.7537    1.6377 H       1  LIG1        0.0248
     68 H          -2.0862   -0.1476    0.5067 H       1  LIG1        0.0235
     69 H          -3.1998    0.3492   -0.7715 H       1  LIG1        0.0235
     70 H          -1.4703    0.4849   -1.0328 H       1  LIG1        0.0235
     71 H          -2.2605   -2.5032   -3.1253 H       1  LIG1        0.0235
     72 H          -1.5008   -0.9008   -3.1058 H       1  LIG1        0.0235
     73 H          -3.2524   -1.0437   -3.0049 H       1  LIG1        0.0235
     74 H          -3.5721   -3.3025   -1.0449 H       1  LIG1        0.0235
     75 H          -4.4058   -1.7507   -0.9166 H       1  LIG1        0.0235
     76 H          -3.4847   -2.3740    0.4609 H       1  LIG1        0.0235
     77 HA          1.8435   -1.9756    0.9635 H       1  LIG1        0.0567
     78 H           2.2088    0.4655    2.7432 H       1  LIG1        0.0287
     79 H           2.8691   -1.1227    3.0389 H       1  LIG1        0.0287
     80 HA          0.6193    2.2140   -1.4319 H       1  LIG1        0.0952
     81 H           0.5341   -2.1090    2.9826 H       1  LIG1        0.0266
     82 H          -0.1113   -0.4866    2.7964 H       1  LIG1        0.0266
     83 H           0.4504    3.9322    0.1947 H       1  LIG1        0.0374
     84 H           1.6426    4.3511   -1.0113 H       1  LIG1        0.0374
     85 H          -0.2942   -0.9369    5.1017 H       1  LIG1        0.0263
     86 H           1.0857    0.1510    4.9813 H       1  LIG1        0.0263
     87 H           4.4112    3.0624    0.4043 H       1  LIG1        0.0818
     88 H           1.2282   -2.9044    5.2517 H       1  LIG1        0.0230
     89 H           1.5237   -1.7300    6.5429 H       1  LIG1        0.0230
     90 H           2.6362   -1.8284    5.1736 H       1  LIG1        0.0230
     91 H           0.0987    5.5157    1.8850 H       1  LIG1        0.0624
     92 H           4.2999    6.0104    4.4993 H       1  LIG1        0.0638
     93 H           0.1730    6.9602    3.8789 H       1  LIG1        0.0618
     94 H           2.2633    7.1996    5.1716 H       1  LIG1        0.0618
     95 H           7.7692    5.6681    4.2354 H       1  LIG1        0.0661
     96 H           8.0583    4.1778    3.3137 H       1  LIG1        0.0661
     97 H           7.4339    4.0924    4.9818 H       1  LIG1        0.0661
@<TRIPOS>BOND
     1     1    21    2
     2     2    24    2
     3     3    30    2
     4     4    34   ar
     5     5    34   ar
     6     6    44    1
     7     6    46    1
     8     7    44    2
     9     8    13    1
    10     8    14    1
    11     9    21   am
    12    10    24   am
    13    10    30   am
    14    12    39   ar
    15    12    38   ar
    16    12    44   am
    17    13    15    1
    18    13    22    1
    19    14    16    1
    20    14    23    1
    21    15    17    1
    22    16    17    1
    23    18     9    1
    24    18    24    1
    25    18    20    1
    26    19    20    1
    27    19    27    1
    28    19    26    1
    29    19    25    1
    30    21     8   am
    31    28    34    1
    32    28    29    1
    33    28    10    1
    34    29    32    1
    35    31    33    1
    36    31    11    1
    37    31    30    1
    38    32    36    1
    39    33    35    1
    40    35    38   ar
    41    35    37   ar
    42    36    40    1
    43    37    39   ar
    44    37    41   ar
    45    39    42   ar
    46    41    43   ar
    47    42    45   ar
    48    43    45   ar
    49     9    47    1
    50    11    48    1
    51    11    49    1
    52    11    50    1
    53    13    51    1
    54    14    52    1
    55    15    53    1
    56    15    54    1
    57    16    55    1
    58    16    56    1
    59    17    57    1
    60    17    58    1
    61    18    59    1
    62    20    60    1
    63    20    61    1
    64    22    62    1
    65    22    63    1
    66    22    64    1
    67    23    65    1
    68    23    66    1
    69    23    67    1
    70    25    68    1
    71    25    69    1
    72    25    70    1
    73    26    71    1
    74    26    72    1
    75    26    73    1
    76    27    74    1
    77    27    75    1
    78    27    76    1
    79    28    77    1
    80    29    78    1
    81    29    79    1
    82    31    80    1
    83    32    81    1
    84    32    82    1
    85    33    83    1
    86    33    84    1
    87    36    85    1
    88    36    86    1
    89    38    87    1
    90    40    88    1
    91    40    89    1
    92    40    90    1
    93    41    91    1
    94    42    92    1
    95    43    93    1
    96    45    94    1
    97    46    95    1
    98    46    96    1
    99    46    97    1
@<TRIPOS>MOLECULE
23693553
 97 99 0 0 0
SMALL
GASTEIGER

@<TRIPOS>ATOM
      1 O           0.4914   -4.2762    0.6466 O.2     1  LIG1       -0.2526
      2 O           1.1255   -0.0135   -2.1365 O.2     1  LIG1       -0.2731
      3 O           0.3889    1.6214    1.3953 O.2     1  LIG1       -0.2689
      4 O           4.2583   -1.7664    0.7480 O.co2   1  LIG1       -0.5479
      5 OXT         3.7748    0.3380    0.0241 O.co2   1  LIG1       -0.5479
      6 O           6.0594    4.7171    3.6153 O.3     1  LIG1       -0.4515
      7 O           6.4875    3.4565    1.7256 O.2     1  LIG1       -0.2227
      8 N           2.6130   -4.8709   -0.0045 N.am    1  LIG1       -0.2801
      9 N           1.4331   -3.1344   -1.0724 N.am    1  LIG1       -0.2879
     10 N           1.1356   -0.1569    0.1535 N.am    1  LIG1       -0.2273
     11 N           2.6779    1.8785   -1.4209 N.4     1  LIG1        0.2276
     12 N           4.3798    4.2620    2.1239 N.ar    1  LIG1       -0.2526
     13 C           3.8191   -4.6857   -0.8473 C.3     1  LIG1        0.0249
     14 C           2.6245   -5.8487    1.1069 C.3     1  LIG1        0.0249
     15 C           5.1339   -5.2254   -0.2644 C.3     1  LIG1       -0.0344
     16 C           4.0056   -6.2997    1.6036 C.3     1  LIG1       -0.0344
     17 C           5.0961   -5.3122    1.2473 C.3     1  LIG1       -0.0497
     18 CA          0.3774   -2.1348   -1.2937 C.3     1  LIG1        0.1019
     19 C          -2.2325   -1.5814   -1.1390 C.3     1  LIG1       -0.0356
     20 C          -0.9950   -2.3922   -0.6386 C.3     1  LIG1       -0.0210
     21 C           1.4494   -4.1043   -0.1047 C.2     1  LIG1        0.3033
     22 C           3.6074   -5.2627   -2.2518 C.3     1  LIG1       -0.0464
     23 C           1.7696   -7.0793    0.7777 C.3     1  LIG1       -0.0464
     24 C           0.8982   -0.6835   -1.1153 C.2     1  LIG1        0.2429
     25 C          -2.2495   -0.1530   -0.5717 C.3     1  LIG1       -0.0600
     26 C          -2.3114   -1.5167   -2.6727 C.3     1  LIG1       -0.0600
     27 C          -3.4994   -2.3029   -0.6247 C.3     1  LIG1       -0.0600
     28 CA          2.0332   -0.9097    1.0760 C.3     1  LIG1        0.0730
     29 C           2.0438   -0.5236    2.5629 C.3     1  LIG1       -0.0286
     30 C           1.0023    1.2175    0.4019 C.2     1  LIG1        0.2708
     31 CA          1.4272    2.2325   -0.6935 C.3     1  LIG1        0.0579
     32 C           0.7390   -0.8826    3.2813 C.3     1  LIG1       -0.0513
     33 C           1.4895    3.6828   -0.1885 C.3     1  LIG1        0.0261
     34 C           3.5192   -0.7626    0.6160 C.2     1  LIG1        0.0626
     35 C           2.4763    4.0308    0.8910 C.ar    1  LIG1       -0.0158
     36 C           0.8511   -0.5865    4.7780 C.3     1  LIG1       -0.0558
     37 C           2.2145    4.8977    2.0013 C.ar    1  LIG1        0.0038
     38 C           3.8006    3.6712    1.0004 C.ar    1  LIG1        0.0202
     39 C           3.3928    5.0305    2.7509 C.ar    1  LIG1        0.0598
     40 C          -0.4888   -0.7195    5.4815 C.3     1  LIG1       -0.0653
     41 C           1.0597    5.6003    2.4184 C.ar    1  LIG1       -0.0523
     42 C           3.4263    5.8512    3.8984 C.ar    1  LIG1       -0.0371
     43 C           1.0986    6.4137    3.5524 C.ar    1  LIG1       -0.0611
     44 C           5.7426    4.0902    2.4604 C.2     1  LIG1        0.4196
     45 C           2.2702    6.5363    4.2820 C.ar    1  LIG1       -0.0598
     46 C           7.4218    4.6157    4.0377 C.3     1  LIG1        0.0835
     47 H           2.2989   -2.9590   -1.5532 H       1  LIG1        0.1510
     48 H1          3.2015    2.6288   -1.8651 H       1  LIG1        0.2002
     49 H2          2.4702    1.1210   -2.0897 H       1  LIG1        0.2002
     50 H3          3.3353    1.3832   -0.7543 H       1  LIG1        0.2002
     51 H           3.9700   -3.6083   -0.9575 H       1  LIG1        0.0498
     52 H           2.1501   -5.3468    1.9620 H       1  LIG1        0.0498
     53 H           5.9650   -4.5841   -0.5827 H       1  LIG1        0.0283
     54 H           5.3521   -6.2218   -0.6715 H       1  LIG1        0.0283
     55 H           4.2628   -7.2792    1.1787 H       1  LIG1        0.0283
     56 H           3.9727   -6.4466    2.6902 H       1  LIG1        0.0283
     57 H           4.9044   -4.3330    1.6989 H       1  LIG1        0.0266
     58 H           6.0605   -5.6671    1.6267 H       1  LIG1        0.0266
     59 HA          0.2210   -2.2331   -2.3762 H       1  LIG1        0.0595
     60 H          -0.9135   -2.2620    0.4482 H       1  LIG1        0.0293
     61 H          -1.2337   -3.4510   -0.8112 H       1  LIG1        0.0293
     62 H           3.4417   -6.3445   -2.2104 H       1  LIG1        0.0248
     63 H           4.4835   -5.0742   -2.8821 H       1  LIG1        0.0248
     64 H           2.7405   -4.8198   -2.7508 H       1  LIG1        0.0248
     65 H           2.1727   -7.6165   -0.0874 H       1  LIG1        0.0248
     66 H           0.7364   -6.8075    0.5409 H       1  LIG1        0.0248
     67 H           1.7418   -7.7689    1.6285 H       1  LIG1        0.0248
     68 H          -2.0948   -0.1543    0.5128 H       1  LIG1        0.0235
     69 H          -3.2121    0.3351   -0.7650 H       1  LIG1        0.0235
     70 H          -1.4839    0.4781   -1.0286 H       1  LIG1        0.0235
     71 H          -2.2585   -2.5177   -3.1148 H       1  LIG1        0.0235
     72 H          -1.5012   -0.9143   -3.0962 H       1  LIG1        0.0235
     73 H          -3.2527   -1.0593   -2.9995 H       1  LIG1        0.0235
     74 H          -3.5725   -3.3164   -1.0361 H       1  LIG1        0.0235
     75 H          -4.4104   -1.7664   -0.9139 H       1  LIG1        0.0235
     76 H          -3.4921   -2.3842    0.4680 H       1  LIG1        0.0235
     77 HA          1.7668   -1.9598    1.0306 H       1  LIG1        0.0567
     78 H           2.2729    0.5404    2.6957 H       1  LIG1        0.0287
     79 H           2.8601   -1.0636    3.0633 H       1  LIG1        0.0287
     80 HA          0.6373    2.2201   -1.4552 H       1  LIG1        0.0952
     81 H           0.5163   -1.9474    3.1390 H       1  LIG1        0.0266
     82 H          -0.1000   -0.3255    2.8535 H       1  LIG1        0.0266
     83 H           0.4826    3.9533    0.1548 H       1  LIG1        0.0374
     84 H           1.6933    4.3450   -1.0415 H       1  LIG1        0.0374
     85 H           1.2355    0.4280    4.9348 H       1  LIG1        0.0263
     86 H           1.5695   -1.2782    5.2343 H       1  LIG1        0.0263
     87 H           4.4312    3.0365    0.3908 H       1  LIG1        0.0818
     88 H          -1.2022    0.0179    5.0994 H       1  LIG1        0.0230
     89 H          -0.3696   -0.5483    6.5560 H       1  LIG1        0.0230
     90 H          -0.9140   -1.7176    5.3389 H       1  LIG1        0.0230
     91 H           0.1299    5.5148    1.8633 H       1  LIG1        0.0624
     92 H           4.3246    5.9733    4.4948 H       1  LIG1        0.0638
     93 H           0.2058    6.9499    3.8639 H       1  LIG1        0.0618
     94 H           2.2929    7.1715    5.1649 H       1  LIG1        0.0618
     95 H           7.7941    5.6271    4.2260 H       1  LIG1        0.0661
     96 H           8.0784    4.1340    3.3074 H       1  LIG1        0.0661
     97 H           7.4520    4.0543    4.9751 H       1  LIG1        0.0661
@<TRIPOS>BOND
     1     1    21    2
     2     2    24    2
     3     3    30    2
     4     4    34   ar
     5     5    34   ar
     6     6    44    1
     7     6    46    1
     8     7    44    2
     9     8    13    1
    10     8    14    1
    11     9    21   am
    12    10    24   am
    13    10    30   am
    14    12    39   ar
    15    12    38   ar
    16    12    44   am
    17    13    15    1
    18    13    22    1
    19    14    16    1
    20    14    23    1
    21    15    17    1
    22    16    17    1
    23    18     9    1
    24    18    24    1
    25    18    20    1
    26    19    20    1
    27    19    27    1
    28    19    26    1
    29    19    25    1
    30    21     8   am
    31    28    34    1
    32    28    29    1
    33    28    10    1
    34    29    32    1
    35    31    33    1
    36    31    11    1
    37    31    30    1
    38    32    36    1
    39    33    35    1
    40    35    38   ar
    41    35    37   ar
    42    36    40    1
    43    37    39   ar
    44    37    41   ar
    45    39    42   ar
    46    41    43   ar
    47    42    45   ar
    48    43    45   ar
    49     9    47    1
    50    11    48    1
    51    11    49    1
    52    11    50    1
    53    13    51    1
    54    14    52    1
    55    15    53    1
    56    15    54    1
    57    16    55    1
    58    16    56    1
    59    17    57    1
    60    17    58    1
    61    18    59    1
    62    20    60    1
    63    20    61    1
    64    22    62    1
    65    22    63    1
    66    22    64    1
    67    23    65    1
    68    23    66    1
    69    23    67    1
    70    25    68    1
    71    25    69    1
    72    25    70    1
    73    26    71    1
    74    26    72    1
    75    26    73    1
    76    27    74    1
    77    27    75    1
    78    27    76    1
    79    28    77    1
    80    29    78    1
    81    29    79    1
    82    31    80    1
    83    32    81    1
    84    32    82    1
    85    33    83    1
    86    33    84    1
    87    36    85    1
    88    36    86    1
    89    38    87    1
    90    40    88    1
    91    40    89    1
    92    40    90    1
    93    41    91    1
    94    42    92    1
    95    43    93    1
    96    45    94    1
    97    46    95    1
    98    46    96    1
    99    46    97    1
@<TRIPOS>MOLECULE
23693553
 97 99 0 0 0
SMALL
GASTEIGER

@<TRIPOS>ATOM
      1 O           0.4966   -4.2661    0.6230 O.2     1  LIG1       -0.2526
      2 O           1.0782    0.0087   -2.1481 O.2     1  LIG1       -0.2731
      3 O           0.3771    1.5789    1.4138 O.2     1  LIG1       -0.2689
      4 O           4.2879   -1.7265    0.7402 O.co2   1  LIG1       -0.5479
      5 OXT         3.7568    0.3559   -0.0060 O.co2   1  LIG1       -0.5479
      6 O           6.0612    4.7002    3.6004 O.3     1  LIG1       -0.4515
      7 O           6.4743    3.4504    1.6983 O.2     1  LIG1       -0.2227
      8 N           2.6214   -4.8684   -0.0110 N.am    1  LIG1       -0.2801
      9 N           1.4474   -3.1423   -1.1032 N.am    1  LIG1       -0.2879
     10 N           1.1281   -0.1740    0.1384 N.am    1  LIG1       -0.2273
     11 N           2.6313    1.8975   -1.4283 N.4     1  LIG1        0.2276
     12 N           4.3692    4.2519    2.1227 N.ar    1  LIG1       -0.2526
     13 C           3.8358   -4.6808   -0.8420 C.3     1  LIG1        0.0249
     14 C           2.6290   -5.8263    1.1182 C.3     1  LIG1        0.0249
     15 C           5.1449   -5.2268   -0.2528 C.3     1  LIG1       -0.0344
     16 C           4.0068   -6.2832    1.6179 C.3     1  LIG1       -0.0344
     17 C           5.1027   -5.3029    1.2592 C.3     1  LIG1       -0.0497
     18 CA          0.3922   -2.1453   -1.3374 C.3     1  LIG1        0.1019
     19 C          -2.2314   -1.6392   -1.2492 C.3     1  LIG1       -0.0356
     20 C          -0.9921   -2.4255   -0.7165 C.3     1  LIG1       -0.0210
     21 C           1.4578   -4.1037   -0.1262 C.2     1  LIG1        0.3033
     22 C           3.6360   -5.2504   -2.2516 C.3     1  LIG1       -0.0464
     23 C           1.7623   -7.0555    0.8145 C.3     1  LIG1       -0.0464
     24 C           0.8884   -0.6865   -1.1360 C.2     1  LIG1        0.2429
     25 C          -2.2710   -1.5733   -2.7841 C.3     1  LIG1       -0.0600
     26 C          -3.4972   -2.3873   -0.7706 C.3     1  LIG1       -0.0600
     27 C          -2.2909   -0.2131   -0.6791 C.3     1  LIG1       -0.0600
     28 CA          2.0410   -0.9250    1.0463 C.3     1  LIG1        0.0730
     29 C           2.0198   -0.5941    2.5467 C.3     1  LIG1       -0.0286
     30 C           0.9836    1.1961    0.4077 C.2     1  LIG1        0.2708
     31 CA          1.3890    2.2314   -0.6774 C.3     1  LIG1        0.0579
     32 C           0.7177   -1.0411    3.2229 C.3     1  LIG1       -0.0513
     33 C           1.4485    3.6757   -0.1547 C.3     1  LIG1        0.0261
     34 C           3.5247   -0.7465    0.5934 C.2     1  LIG1        0.0626
     35 C           2.4510    4.0219    0.9115 C.ar    1  LIG1       -0.0158
     36 C           0.7481   -0.8447    4.7409 C.3     1  LIG1       -0.0558
     37 C           2.2041    4.8940    2.0212 C.ar    1  LIG1        0.0038
     38 C           3.7751    3.6608    1.0069 C.ar    1  LIG1        0.0202
     39 C           3.3899    5.0246    2.7583 C.ar    1  LIG1        0.0598
     40 C           1.5904   -1.8903    5.4586 C.3     1  LIG1       -0.0653
     41 C           1.0553    5.6031    2.4461 C.ar    1  LIG1       -0.0523
     42 C           3.4367    5.8490    3.9036 C.ar    1  LIG1       -0.0371
     43 C           1.1076    6.4195    3.5770 C.ar    1  LIG1       -0.0611
     44 C           5.7365    4.0770    2.4440 C.2     1  LIG1        0.4196
     45 C           2.2861    6.5399    4.2956 C.ar    1  LIG1       -0.0598
     46 C           7.4260    4.5983    4.0150 C.3     1  LIG1        0.0835
     47 H           2.3193   -2.9629   -1.5714 H       1  LIG1        0.1510
     48 H1          3.1441    2.6591   -1.8658 H       1  LIG1        0.2002
     49 H2          2.4188    1.1507   -2.1071 H       1  LIG1        0.2002
     50 H3          3.3007    1.3975   -0.7776 H       1  LIG1        0.2002
     51 H           3.9886   -3.6026   -0.9430 H       1  LIG1        0.0498
     52 H           2.1629   -5.3040    1.9655 H       1  LIG1        0.0498
     53 H           5.9815   -4.5941   -0.5735 H       1  LIG1        0.0283
     54 H           5.3559   -6.2277   -0.6528 H       1  LIG1        0.0283
     55 H           4.2589   -7.2656    1.1965 H       1  LIG1        0.0283
     56 H           3.9718   -6.4261    2.7050 H       1  LIG1        0.0283
     57 H           4.9139   -4.3197    1.7035 H       1  LIG1        0.0266
     58 H           6.0642   -5.6601    1.6434 H       1  LIG1        0.0266
     59 HA          0.2627   -2.2355   -2.4241 H       1  LIG1        0.0595
     60 H          -0.9400   -2.2905    0.3715 H       1  LIG1        0.0293
     61 H          -1.2074   -3.4888   -0.8917 H       1  LIG1        0.0293
     62 H           3.4675   -6.3321   -2.2166 H       1  LIG1        0.0248
     63 H           4.5193   -5.0615   -2.8721 H       1  LIG1        0.0248
     64 H           2.7763   -4.8040   -2.7582 H       1  LIG1        0.0248
     65 H           2.1565   -7.6105   -0.0435 H       1  LIG1        0.0248
     66 H           0.7298   -6.7813    0.5793 H       1  LIG1        0.0248
     67 H           1.7342   -7.7307    1.6773 H       1  LIG1        0.0248
     68 H          -1.4647   -0.9510   -3.1853 H       1  LIG1        0.0235
     69 H          -3.2141   -1.1382   -3.1355 H       1  LIG1        0.0235
     70 H          -2.1826   -2.5721   -3.2259 H       1  LIG1        0.0235
     71 H          -3.5179   -2.4713    0.3219 H       1  LIG1        0.0235
     72 H          -3.5382   -3.4015   -1.1852 H       1  LIG1        0.0235
     73 H          -4.4106   -1.8693   -1.0835 H       1  LIG1        0.0235
     74 H          -2.1778   -0.2159    0.4107 H       1  LIG1        0.0235
     75 H          -3.2530    0.2610   -0.9077 H       1  LIG1        0.0235
     76 H          -1.5172    0.4309   -1.1029 H       1  LIG1        0.0235
     77 HA          1.8038   -1.9783    0.9678 H       1  LIG1        0.0567
     78 H           2.1990    0.4720    2.7265 H       1  LIG1        0.0287
     79 H           2.8570   -1.1158    3.0276 H       1  LIG1        0.0287
     80 HA          0.5884    2.2252   -1.4283 H       1  LIG1        0.0952
     81 H           0.5151   -2.0943    2.9935 H       1  LIG1        0.0266
     82 H          -0.1220   -0.4677    2.8163 H       1  LIG1        0.0266
     83 H           0.4454    3.9328    0.2094 H       1  LIG1        0.0374
     84 H           1.6316    4.3495   -1.0028 H       1  LIG1        0.0374
     85 H          -0.2772   -0.9096    5.1236 H       1  LIG1        0.0263
     86 H           1.1168    0.1584    4.9858 H       1  LIG1        0.0263
     87 H           4.3986    3.0228    0.3921 H       1  LIG1        0.0818
     88 H           1.2160   -2.8988    5.2557 H       1  LIG1        0.0230
     89 H           1.5501   -1.7281    6.5407 H       1  LIG1        0.0230
     90 H           2.6402   -1.8463    5.1548 H       1  LIG1        0.0230
     91 H           0.1207    5.5200    1.8992 H       1  LIG1        0.0624
     92 H           4.3408    5.9700    4.4911 H       1  LIG1        0.0638
     93 H           0.2201    6.9609    3.8944 H       1  LIG1        0.0618
     94 H           2.3194    7.1776    5.1759 H       1  LIG1        0.0618
     95 H           7.8069    5.6101    4.1795 H       1  LIG1        0.0661
     96 H           8.0731    4.0939    3.2921 H       1  LIG1        0.0661
     97 H           7.4578    4.0573    4.9649 H       1  LIG1        0.0661
@<TRIPOS>BOND
     1     1    21    2
     2     2    24    2
     3     3    30    2
     4     4    34   ar
     5     5    34   ar
     6     6    44    1
     7     6    46    1
     8     7    44    2
     9     8    13    1
    10     8    14    1
    11     9    21   am
    12    10    24   am
    13    10    30   am
    14    12    39   ar
    15    12    38   ar
    16    12    44   am
    17    13    15    1
    18    13    22    1
    19    14    16    1
    20    14    23    1
    21    15    17    1
    22    16    17    1
    23    18     9    1
    24    18    24    1
    25    18    20    1
    26    19    20    1
    27    19    27    1
    28    19    26    1
    29    19    25    1
    30    21     8   am
    31    28    34    1
    32    28    29    1
    33    28    10    1
    34    29    32    1
    35    31    33    1
    36    31    11    1
    37    31    30    1
    38    32    36    1
    39    33    35    1
    40    35    38   ar
    41    35    37   ar
    42    36    40    1
    43    37    39   ar
    44    37    41   ar
    45    39    42   ar
    46    41    43   ar
    47    42    45   ar
    48    43    45   ar
    49     9    47    1
    50    11    48    1
    51    11    49    1
    52    11    50    1
    53    13    51    1
    54    14    52    1
    55    15    53    1
    56    15    54    1
    57    16    55    1
    58    16    56    1
    59    17    57    1
    60    17    58    1
    61    18    59    1
    62    20    60    1
    63    20    61    1
    64    22    62    1
    65    22    63    1
    66    22    64    1
    67    23    65    1
    68    23    66    1
    69    23    67    1
    70    25    68    1
    71    25    69    1
    72    25    70    1
    73    26    71    1
    74    26    72    1
    75    26    73    1
    76    27    74    1
    77    27    75    1
    78    27    76    1
    79    28    77    1
    80    29    78    1
    81    29    79    1
    82    31    80    1
    83    32    81    1
    84    32    82    1
    85    33    83    1
    86    33    84    1
    87    36    85    1
    88    36    86    1
    89    38    87    1
    90    40    88    1
    91    40    89    1
    92    40    90    1
    93    41    91    1
    94    42    92    1
    95    43    93    1
    96    45    94    1
    97    46    95    1
    98    46    96    1
    99    46    97    1
@<TRIPOS>MOLECULE
23693553
 97 99 0 0 0
SMALL
GASTEIGER

@<TRIPOS>ATOM
      1 O           0.3756   -4.3867    0.4244 O.2     1  LIG1       -0.2526
      2 O           0.5837    0.1455   -2.0675 O.2     1  LIG1       -0.2731
      3 O           0.6166    1.5612    1.5172 O.2     1  LIG1       -0.2689
      4 O           4.2860   -1.6951    1.0450 O.co2   1  LIG1       -0.5479
      5 OXT         3.4721   -0.5252   -0.7232 O.co2   1  LIG1       -0.5479
      6 O           4.7042    6.3103    4.3660 O.3     1  LIG1       -0.4515
      7 O           3.0445    7.4398    3.2226 O.2     1  LIG1       -0.2227
      8 N           2.5528   -4.8509   -0.1271 N.am    1  LIG1       -0.2801
      9 N           1.3444   -3.1252   -1.1955 N.am    1  LIG1       -0.2879
     10 N           1.0630   -0.2286    0.1536 N.am    1  LIG1       -0.2273
     11 N           2.7811    1.7285   -1.4101 N.4     1  LIG1        0.2276
     12 N           3.6352    5.3164    2.5993 N.ar    1  LIG1       -0.2526
     13 C           3.7757   -4.6186   -0.9317 C.3     1  LIG1        0.0249
     14 C           2.5752   -5.8016    1.0119 C.3     1  LIG1        0.0249
     15 C           5.0845   -5.1579   -0.3357 C.3     1  LIG1       -0.0344
     16 C           3.9570   -6.2113    1.5435 C.3     1  LIG1       -0.0344
     17 C           5.0396   -5.2211    1.1764 C.3     1  LIG1       -0.0497
     18 CA          0.2626   -2.1377   -1.4000 C.3     1  LIG1        0.1019
     19 C          -2.3741   -1.6711   -1.2147 C.3     1  LIG1       -0.0356
     20 C          -1.1106   -2.4761   -0.7767 C.3     1  LIG1       -0.0210
     21 C           1.3556   -4.1455   -0.2774 C.2     1  LIG1        0.3033
     22 C           3.6100   -5.1633   -2.3552 C.3     1  LIG1       -0.0464
     23 C           1.7567   -7.0656    0.7131 C.3     1  LIG1       -0.0464
     24 C           0.6808   -0.6607   -1.1267 C.2     1  LIG1        0.2429
     25 C          -2.4318   -0.2794   -0.5615 C.3     1  LIG1       -0.0600
     26 C          -2.4731   -1.5292   -2.7412 C.3     1  LIG1       -0.0600
     27 C          -3.6129   -2.4580   -0.7259 C.3     1  LIG1       -0.0600
     28 CA          1.9226   -1.1106    0.9956 C.3     1  LIG1        0.0730
     29 C           1.9891   -0.8145    2.5049 C.3     1  LIG1       -0.0286
     30 C           1.1008    1.1376    0.4634 C.2     1  LIG1        0.2708
     31 CA          1.5880    2.1448   -0.6071 C.3     1  LIG1        0.0579
     32 C           0.6663   -1.1183    3.2192 C.3     1  LIG1       -0.0513
     33 C           1.7537    3.5811   -0.0879 C.3     1  LIG1        0.0261
     34 C           3.3702   -1.1470    0.3945 C.2     1  LIG1        0.0626
     35 C           2.7352    3.9564    0.9950 C.ar    1  LIG1       -0.0158
     36 C           0.7440   -0.8718    4.7282 C.3     1  LIG1       -0.0558
     37 C           3.8353    3.2831    1.6168 C.ar    1  LIG1        0.0038
     38 C           2.6764    5.1962    1.6061 C.ar    1  LIG1        0.0202
     39 C           4.3829    4.1376    2.5941 C.ar    1  LIG1        0.0598
     40 C           1.5871   -1.9053    5.4621 C.3     1  LIG1       -0.0653
     41 C           4.4368    2.0178    1.4634 C.ar    1  LIG1       -0.0523
     42 C           5.4999    3.7415    3.3670 C.ar    1  LIG1       -0.0371
     43 C           5.5255    1.6167    2.2394 C.ar    1  LIG1       -0.0611
     44 C           3.7552    6.4649    3.4145 C.2     1  LIG1        0.4196
     45 C           6.0562    2.4764    3.1796 C.ar    1  LIG1       -0.0598
     46 C           4.8724    7.4117    5.2603 C.3     1  LIG1        0.0835
     47 H           2.2130   -2.9020   -1.6549 H       1  LIG1        0.1510
     48 H1          2.5439    1.6135   -2.3992 H       1  LIG1        0.2002
     49 H2          3.0873    0.7493   -1.1507 H       1  LIG1        0.2002
     50 H3          3.6200    2.2997   -1.2877 H       1  LIG1        0.2002
     51 H           3.9078   -3.5351   -1.0025 H       1  LIG1        0.0498
     52 H           2.0778   -5.2847    1.8453 H       1  LIG1        0.0498
     53 H           5.9208   -4.5266   -0.6601 H       1  LIG1        0.0283
     54 H           5.2968   -6.1624   -0.7260 H       1  LIG1        0.0283
     55 H           4.2374   -7.1991    1.1535 H       1  LIG1        0.0283
     56 H           3.9091   -6.3268    2.6335 H       1  LIG1        0.0283
     57 H           4.8372   -4.2387    1.6138 H       1  LIG1        0.0266
     58 H           6.0048   -5.5622    1.5668 H       1  LIG1        0.0266
     59 HA          0.1374   -2.1879   -2.4900 H       1  LIG1        0.0595
     60 H          -1.0355   -2.4166    0.3170 H       1  LIG1        0.0293
     61 H          -1.3178   -3.5267   -1.0238 H       1  LIG1        0.0293
     62 H           3.4541   -6.2476   -2.3429 H       1  LIG1        0.0248
     63 H           4.5017   -4.9526   -2.9557 H       1  LIG1        0.0248
     64 H           2.7532   -4.7181   -2.8688 H       1  LIG1        0.0248
     65 H           2.1819   -7.6160   -0.1326 H       1  LIG1        0.0248
     66 H           0.7170   -6.8356    0.4631 H       1  LIG1        0.0248
     67 H           1.7428   -7.7298    1.5845 H       1  LIG1        0.0248
     68 H          -2.2431   -0.3382    0.5161 H       1  LIG1        0.0235
     69 H          -3.4196    0.1768   -0.6973 H       1  LIG1        0.0235
     70 H          -1.7112    0.4159   -0.9961 H       1  LIG1        0.0235
     71 H          -2.4089   -2.5057   -3.2337 H       1  LIG1        0.0235
     72 H          -1.6787   -0.8944   -3.1449 H       1  LIG1        0.0235
     73 H          -3.4262   -1.0727   -3.0329 H       1  LIG1        0.0235
     74 H          -3.6589   -3.4518   -1.1858 H       1  LIG1        0.0235
     75 H          -4.5431   -1.9366   -0.9792 H       1  LIG1        0.0235
     76 H          -3.5910   -2.5924    0.3615 H       1  LIG1        0.0235
     77 HA          1.5249   -2.1135    0.9332 H       1  LIG1        0.0567
     78 H           2.3033    0.2160    2.6987 H       1  LIG1        0.0287
     79 H           2.7650   -1.4451    2.9533 H       1  LIG1        0.0287
     80 HA          0.7735    2.2286   -1.3362 H       1  LIG1        0.0952
     81 H           0.3728   -2.1588    3.0334 H       1  LIG1        0.0266
     82 H          -0.1317   -0.4923    2.8065 H       1  LIG1        0.0266
     83 H           0.7632    3.9066    0.2661 H       1  LIG1        0.0374
     84 H           1.9752    4.2261   -0.9509 H       1  LIG1        0.0374
     85 H          -0.2719   -0.9017    5.1393 H       1  LIG1        0.0263
     86 H           1.1384    0.1317    4.9257 H       1  LIG1        0.0263
     87 H           1.9905    6.0195    1.4432 H       1  LIG1        0.0818
     88 H           1.2089   -2.9171    5.2831 H       1  LIG1        0.0230
     89 H           1.5557   -1.7191    6.5403 H       1  LIG1        0.0230
     90 H           2.6351   -1.8697    5.1513 H       1  LIG1        0.0230
     91 H           4.0679    1.2994    0.7555 H       1  LIG1        0.0624
     92 H           5.9396    4.3889    4.1191 H       1  LIG1        0.0638
     93 H           5.9405    0.6183    2.1043 H       1  LIG1        0.0618
     94 H           6.9030    2.1604    3.7839 H       1  LIG1        0.0618
     95 H           5.1018    7.0074    6.2502 H       1  LIG1        0.0661
     96 H           3.9784    8.0371    5.3469 H       1  LIG1        0.0661
     97 H           5.7210    8.0139    4.9243 H       1  LIG1        0.0661
@<TRIPOS>BOND
     1     1    21    2
     2     2    24    2
     3     3    30    2
     4     4    34   ar
     5     5    34   ar
     6     6    44    1
     7     6    46    1
     8     7    44    2
     9     8    13    1
    10     8    14    1
    11     9    21   am
    12    10    24   am
    13    10    30   am
    14    12    39   ar
    15    12    38   ar
    16    12    44   am
    17    13    15    1
    18    13    22    1
    19    14    16    1
    20    14    23    1
    21    15    17    1
    22    16    17    1
    23    18     9    1
    24    18    24    1
    25    18    20    1
    26    19    20    1
    27    19    27    1
    28    19    26    1
    29    19    25    1
    30    21     8   am
    31    28    34    1
    32    28    29    1
    33    28    10    1
    34    29    32    1
    35    31    33    1
    36    31    11    1
    37    31    30    1
    38    32    36    1
    39    33    35    1
    40    35    38   ar
    41    35    37   ar
    42    36    40    1
    43    37    39   ar
    44    37    41   ar
    45    39    42   ar
    46    41    43   ar
    47    42    45   ar
    48    43    45   ar
    49     9    47    1
    50    11    48    1
    51    11    49    1
    52    11    50    1
    53    13    51    1
    54    14    52    1
    55    15    53    1
    56    15    54    1
    57    16    55    1
    58    16    56    1
    59    17    57    1
    60    17    58    1
    61    18    59    1
    62    20    60    1
    63    20    61    1
    64    22    62    1
    65    22    63    1
    66    22    64    1
    67    23    65    1
    68    23    66    1
    69    23    67    1
    70    25    68    1
    71    25    69    1
    72    25    70    1
    73    26    71    1
    74    26    72    1
    75    26    73    1
    76    27    74    1
    77    27    75    1
    78    27    76    1
    79    28    77    1
    80    29    78    1
    81    29    79    1
    82    31    80    1
    83    32    81    1
    84    32    82    1
    85    33    83    1
    86    33    84    1
    87    36    85    1
    88    36    86    1
    89    38    87    1
    90    40    88    1
    91    40    89    1
    92    40    90    1
    93    41    91    1
    94    42    92    1
    95    43    93    1
    96    45    94    1
    97    46    95    1
    98    46    96    1
    99    46    97    1
@<TRIPOS>MOLECULE
23693553
 97 99 0 0 0
SMALL
GASTEIGER

@<TRIPOS>ATOM
      1 O          -1.4069    1.4136   -3.9898 O.2     1  LIG1       -0.2526
      2 O           0.6922   -1.5761   -1.6482 O.2     1  LIG1       -0.2731
      3 O           1.0382    2.1353    0.0339 O.2     1  LIG1       -0.2689
      4 O           1.3577   -3.4392    1.4814 O.co2   1  LIG1       -0.5479
      5 OXT        -0.1715   -1.7329    1.3308 O.co2   1  LIG1       -0.5479
      6 O           2.2547   -1.5954    7.6321 O.3     1  LIG1       -0.4515
      7 O           2.4212    0.3217    8.9190 O.2     1  LIG1       -0.2227
      8 N          -2.0728    3.0192   -2.4748 N.am    1  LIG1       -0.2801
      9 N          -0.1637    1.7026   -2.1221 N.am    1  LIG1       -0.2879
     10 N           1.5429   -0.1118   -0.0667 N.am    1  LIG1       -0.2273
     11 N           2.9714    1.1901    2.5393 N.4     1  LIG1        0.2276
     12 N           1.7039    0.4141    6.7267 N.ar    1  LIG1       -0.2526
     13 C          -1.9927    3.6317   -1.1323 C.3     1  LIG1        0.0249
     14 C          -3.1377    3.4262   -3.4171 C.3     1  LIG1        0.0249
     15 C          -2.7350    4.9674   -0.9829 C.3     1  LIG1       -0.0344
     16 C          -3.6814    4.8543   -3.2306 C.3     1  LIG1       -0.0344
     17 C          -2.8264    5.7001   -2.3063 C.3     1  LIG1       -0.0497
     18 CA          0.8243    0.6847   -2.4325 C.3     1  LIG1        0.1019
     19 C           2.4301    2.0398   -4.0826 C.3     1  LIG1       -0.0356
     20 C           2.2240    1.2597   -2.7523 C.3     1  LIG1       -0.0210
     21 C          -1.2352    1.9897   -2.9179 C.2     1  LIG1        0.3033
     22 C          -2.4530    2.6638   -0.0371 C.3     1  LIG1       -0.0464
     23 C          -4.2939    2.4199   -3.4416 C.3     1  LIG1       -0.0464
     24 C           0.9708   -0.4129   -1.3325 C.2     1  LIG1        0.2429
     25 C           1.9606    1.2293   -5.3006 C.3     1  LIG1       -0.0600
     26 C           1.7252    3.4054   -4.0672 C.3     1  LIG1       -0.0600
     27 C           3.9457    2.2986   -4.2349 C.3     1  LIG1       -0.0600
     28 CA          2.0416   -1.3257    0.6451 C.3     1  LIG1        0.0730
     29 C           3.4062   -1.8292    0.1375 C.3     1  LIG1       -0.0286
     30 C           1.2675    1.0669    0.6236 C.2     1  LIG1        0.2708
     31 CA          1.5018    1.2449    2.1546 C.3     1  LIG1        0.0579
     32 C           3.4454   -2.5563   -1.2037 C.3     1  LIG1       -0.0513
     33 C           0.6199    0.5073    3.1677 C.3     1  LIG1        0.0261
     34 C           0.9381   -2.3105    1.1161 C.2     1  LIG1        0.0626
     35 C           0.9930    0.7906    4.6017 C.ar    1  LIG1       -0.0158
     36 C           4.8690   -3.0337   -1.5096 C.3     1  LIG1       -0.0558
     37 C           1.0345    2.0395    5.2875 C.ar    1  LIG1        0.0038
     38 C           1.3956   -0.1683    5.5059 C.ar    1  LIG1        0.0202
     39 C           1.5234    1.7951    6.5799 C.ar    1  LIG1        0.0598
     40 C           4.9578   -3.7012   -2.8715 C.3     1  LIG1       -0.0653
     41 C           0.7218    3.3670    4.9196 C.ar    1  LIG1       -0.0523
     42 C           1.7379    2.8496    7.4881 C.ar    1  LIG1       -0.0371
     43 C           0.9398    4.4127    5.8209 C.ar    1  LIG1       -0.0611
     44 C           2.1493   -0.2646    7.8832 C.2     1  LIG1        0.4196
     45 C           1.4485    4.1551    7.0862 C.ar    1  LIG1       -0.0598
     46 C           2.7194   -2.3611    8.7431 C.3     1  LIG1        0.0835
     47 H           0.0101    2.2343   -1.2850 H       1  LIG1        0.1510
     48 H1          3.1217    1.7451    3.3926 H       1  LIG1        0.2002
     49 H2          3.5655    1.5733    1.7951 H       1  LIG1        0.2002
     50 H3          3.2779    0.2354    2.7623 H       1  LIG1        0.2002
     51 H          -0.9362    3.8668   -0.9603 H       1  LIG1        0.0498
     52 H          -2.6825    3.4074   -4.4174 H       1  LIG1        0.0498
     53 H          -2.2208    5.5905   -0.2408 H       1  LIG1        0.0283
     54 H          -3.7481    4.8040   -0.5924 H       1  LIG1        0.0283
     55 H          -4.7025    4.8209   -2.8270 H       1  LIG1        0.0283
     56 H          -3.7687    5.3446   -4.2079 H       1  LIG1        0.0283
     57 H          -1.8313    5.8670   -2.7343 H       1  LIG1        0.0266
     58 H          -3.2921    6.6812   -2.1622 H       1  LIG1        0.0266
     59 HA          0.4764    0.1338   -3.3139 H       1  LIG1        0.0595
     60 H           2.9265    0.4140   -2.7595 H       1  LIG1        0.0293
     61 H           2.5579    1.8990   -1.9258 H       1  LIG1        0.0293
     62 H          -3.5103    2.4064   -0.1603 H       1  LIG1        0.0248
     63 H          -2.3244    3.1134    0.9538 H       1  LIG1        0.0248
     64 H          -1.8888    1.7270   -0.0505 H       1  LIG1        0.0248
     65 H          -4.7822    2.3561   -2.4643 H       1  LIG1        0.0248
     66 H          -3.9510    1.4145   -3.7046 H       1  LIG1        0.0248
     67 H          -5.0448    2.7148   -4.1832 H       1  LIG1        0.0248
     68 H           2.4184    0.2340   -5.3131 H       1  LIG1        0.0235
     69 H           2.2314    1.7320   -6.2362 H       1  LIG1        0.0235
     70 H           0.8747    1.0999   -5.3125 H       1  LIG1        0.0235
     71 H           1.9324    3.9496   -3.1393 H       1  LIG1        0.0235
     72 H           0.6431    3.3129   -4.1733 H       1  LIG1        0.0235
     73 H           2.0635    4.0322   -4.9005 H       1  LIG1        0.0235
     74 H           4.3332    2.8814   -3.3918 H       1  LIG1        0.0235
     75 H           4.1649    2.8549   -5.1534 H       1  LIG1        0.0235
     76 H           4.5060    1.3576   -4.2782 H       1  LIG1        0.0235
     77 HA          2.3358   -0.9791    1.6328 H       1  LIG1        0.0567
     78 H           3.8182   -2.5086    0.8965 H       1  LIG1        0.0287
     79 H           4.0941   -0.9737    0.0927 H       1  LIG1        0.0287
     80 HA          1.2833    2.3109    2.3050 H       1  LIG1        0.0952
     81 H           3.1329   -1.8860   -2.0084 H       1  LIG1        0.0266
     82 H           2.7618   -3.4122   -1.1899 H       1  LIG1        0.0266
     83 H           0.7109   -0.5686    3.0499 H       1  LIG1        0.0374
     84 H          -0.4340    0.7603    3.0013 H       1  LIG1        0.0374
     85 H           5.2013   -3.7383   -0.7383 H       1  LIG1        0.0263
     86 H           5.5583   -2.1809   -1.4867 H       1  LIG1        0.0263
     87 H           1.4668   -1.2451    5.3874 H       1  LIG1        0.0818
     88 H           4.3153   -4.5856   -2.9173 H       1  LIG1        0.0230
     89 H           5.9870   -4.0161   -3.0711 H       1  LIG1        0.0230
     90 H           4.6546   -3.0119   -3.6661 H       1  LIG1        0.0230
     91 H           0.2914    3.5963    3.9486 H       1  LIG1        0.0624
     92 H           2.1108    2.6694    8.4941 H       1  LIG1        0.0638
     93 H           0.6949    5.4340    5.5369 H       1  LIG1        0.0618
     94 H           1.6046    4.9752    7.7848 H       1  LIG1        0.0618
     95 H           2.8599   -3.3922    8.4083 H       1  LIG1        0.0661
     96 H           1.9755   -2.3524    9.5459 H       1  LIG1        0.0661
     97 H           3.6816   -1.9809    9.1016 H       1  LIG1        0.0661
@<TRIPOS>BOND
     1     1    21    2
     2     2    24    2
     3     3    30    2
     4     4    34   ar
     5     5    34   ar
     6     6    44    1
     7     6    46    1
     8     7    44    2
     9     8    13    1
    10     8    14    1
    11     9    21   am
    12    10    24   am
    13    10    30   am
    14    12    39   ar
    15    12    38   ar
    16    12    44   am
    17    13    15    1
    18    13    22    1
    19    14    16    1
    20    14    23    1
    21    15    17    1
    22    16    17    1
    23    18     9    1
    24    18    24    1
    25    18    20    1
    26    19    20    1
    27    19    27    1
    28    19    26    1
    29    19    25    1
    30    21     8   am
    31    28    34    1
    32    28    29    1
    33    28    10    1
    34    29    32    1
    35    31    33    1
    36    31    11    1
    37    31    30    1
    38    32    36    1
    39    33    35    1
    40    35    38   ar
    41    35    37   ar
    42    36    40    1
    43    37    39   ar
    44    37    41   ar
    45    39    42   ar
    46    41    43   ar
    47    42    45   ar
    48    43    45   ar
    49     9    47    1
    50    11    48    1
    51    11    49    1
    52    11    50    1
    53    13    51    1
    54    14    52    1
    55    15    53    1
    56    15    54    1
    57    16    55    1
    58    16    56    1
    59    17    57    1
    60    17    58    1
    61    18    59    1
    62    20    60    1
    63    20    61    1
    64    22    62    1
    65    22    63    1
    66    22    64    1
    67    23    65    1
    68    23    66    1
    69    23    67    1
    70    25    68    1
    71    25    69    1
    72    25    70    1
    73    26    71    1
    74    26    72    1
    75    26    73    1
    76    27    74    1
    77    27    75    1
    78    27    76    1
    79    28    77    1
    80    29    78    1
    81    29    79    1
    82    31    80    1
    83    32    81    1
    84    32    82    1
    85    33    83    1
    86    33    84    1
    87    36    85    1
    88    36    86    1
    89    38    87    1
    90    40    88    1
    91    40    89    1
    92    40    90    1
    93    41    91    1
    94    42    92    1
    95    43    93    1
    96    45    94    1
    97    46    95    1
    98    46    96    1
    99    46    97    1
@<TRIPOS>MOLECULE
23693553
 97 99 0 0 0
SMALL
GASTEIGER

@<TRIPOS>ATOM
      1 O           0.5160   -4.2625    0.6341 O.2     1  LIG1       -0.2526
      2 O           1.0879    0.0129   -2.1440 O.2     1  LIG1       -0.2731
      3 O           0.3594    1.6206    1.3879 O.2     1  LIG1       -0.2689
      4 O           4.2389   -1.7629    0.7520 O.co2   1  LIG1       -0.5479
      5 OXT         3.7551    0.3360    0.0099 O.co2   1  LIG1       -0.5479
      6 O           6.0435    4.7283    3.6241 O.3     1  LIG1       -0.4515
      7 O           6.4683    3.4655    1.7357 O.2     1  LIG1       -0.2227
      8 N           2.6398   -4.8620   -0.0064 N.am    1  LIG1       -0.2801
      9 N           1.4685   -3.1242   -1.0813 N.am    1  LIG1       -0.2879
     10 N           1.1181   -0.1517    0.1443 N.am    1  LIG1       -0.2273
     11 N           2.6590    1.8915   -1.4208 N.4     1  LIG1        0.2276
     12 N           4.3618    4.2678    2.1348 N.ar    1  LIG1       -0.2526
     13 C           3.8484   -4.6819   -0.8471 C.3     1  LIG1        0.0249
     14 C           2.6463   -5.8350    1.1093 C.3     1  LIG1        0.0249
     15 C           5.1586   -5.2333   -0.2654 C.3     1  LIG1       -0.0344
     16 C           4.0246   -6.2936    1.6067 C.3     1  LIG1       -0.0344
     17 C           5.1219   -5.3151    1.2465 C.3     1  LIG1       -0.0497
     18 CA          0.4052   -2.1374   -1.3228 C.3     1  LIG1        0.1019
     19 C          -2.2197   -1.6408   -1.2421 C.3     1  LIG1       -0.0356
     20 C          -0.9793   -2.4229   -0.7052 C.3     1  LIG1       -0.0210
     21 C           1.4783   -4.0927   -0.1120 C.2     1  LIG1        0.3033
     22 C           3.6349   -5.2507   -2.2546 C.3     1  LIG1       -0.0464
     23 C           1.7834   -7.0621    0.7867 C.3     1  LIG1       -0.0464
     24 C           0.8908   -0.6749   -1.1282 C.2     1  LIG1        0.2429
     25 C          -2.2571   -1.5799   -2.7776 C.3     1  LIG1       -0.0600
     26 C          -3.4847   -2.3900   -0.7632 C.3     1  LIG1       -0.0600
     27 C          -2.2839   -0.2127   -0.6770 C.3     1  LIG1       -0.0600
     28 CA          2.0129   -0.9032    1.0705 C.3     1  LIG1        0.0730
     29 C           2.0281   -0.5121    2.5565 C.3     1  LIG1       -0.0286
     30 C           0.9791    1.2218    0.3964 C.2     1  LIG1        0.2708
     31 CA          1.4086    2.2431   -0.6915 C.3     1  LIG1        0.0579
     32 C           0.7273   -0.8701    3.2829 C.3     1  LIG1       -0.0513
     33 C           1.4718    3.6906   -0.1787 C.3     1  LIG1        0.0261
     34 C           3.4984   -0.7613    0.6082 C.2     1  LIG1        0.0626
     35 C           2.4586    4.0352    0.9022 C.ar    1  LIG1       -0.0158
     36 C           0.8516   -0.5797    4.7799 C.3     1  LIG1       -0.0558
     37 C           2.1968    4.9030    2.0122 C.ar    1  LIG1        0.0038
     38 C           3.7824    3.6743    1.0123 C.ar    1  LIG1        0.0202
     39 C           3.3752    5.0362    2.7612 C.ar    1  LIG1        0.0598
     40 C          -0.4842   -0.7054    5.4925 C.3     1  LIG1       -0.0653
     41 C           1.0425    5.6065    2.4286 C.ar    1  LIG1       -0.0523
     42 C           3.4091    5.8582    3.9083 C.ar    1  LIG1       -0.0371
     43 C           1.0817    6.4209    3.5620 C.ar    1  LIG1       -0.0611
     44 C           5.7258    4.0981    2.4696 C.2     1  LIG1        0.4196
     45 C           2.2534    6.5439    4.2914 C.ar    1  LIG1       -0.0598
     46 C           7.4075    4.6296    4.0430 C.3     1  LIG1        0.0835
     47 H           2.3460   -2.9301   -1.5333 H       1  LIG1        0.1510
     48 H1          3.1853    2.6447   -1.8567 H       1  LIG1        0.2002
     49 H2          2.4481    1.1427   -2.0980 H       1  LIG1        0.2002
     50 H3          3.3145    1.3874   -0.7592 H       1  LIG1        0.2002
     51 H           4.0078   -3.6053   -0.9522 H       1  LIG1        0.0498
     52 H           2.1759   -5.3259    1.9623 H       1  LIG1        0.0498
     53 H           5.9955   -4.6009   -0.5866 H       1  LIG1        0.0283
     54 H           5.3660   -6.2329   -0.6703 H       1  LIG1        0.0283
     55 H           4.2749   -7.2762    1.1847 H       1  LIG1        0.0283
     56 H           3.9914   -6.4369    2.6937 H       1  LIG1        0.0283
     57 H           4.9378   -4.3330    1.6952 H       1  LIG1        0.0266
     58 H           6.0840   -5.6760    1.6260 H       1  LIG1        0.0266
     59 HA          0.2790   -2.2342   -2.4094 H       1  LIG1        0.0595
     60 H          -0.9305   -2.2875    0.3830 H       1  LIG1        0.0293
     61 H          -1.1902   -3.4872   -0.8804 H       1  LIG1        0.0293
     62 H           3.4600   -6.3312   -2.2184 H       1  LIG1        0.0248
     63 H           4.5140   -5.0667   -2.8821 H       1  LIG1        0.0248
     64 H           2.7732   -4.7981   -2.7537 H       1  LIG1        0.0248
     65 H           2.1817   -7.6052   -0.0768 H       1  LIG1        0.0248
     66 H           0.7512   -6.7858    0.5508 H       1  LIG1        0.0248
     67 H           1.7531   -7.7478    1.6406 H       1  LIG1        0.0248
     68 H          -1.4509   -0.9579   -3.1796 H       1  LIG1        0.0235
     69 H          -3.2001   -1.1469   -3.1317 H       1  LIG1        0.0235
     70 H          -2.1668   -2.5799   -3.2159 H       1  LIG1        0.0235
     71 H          -3.5071   -2.4704    0.3293 H       1  LIG1        0.0235
     72 H          -3.5233   -3.4053   -1.1751 H       1  LIG1        0.0235
     73 H          -4.3988   -1.8743   -1.0793 H       1  LIG1        0.0235
     74 H          -2.1688   -0.2112    0.4125 H       1  LIG1        0.0235
     75 H          -3.2480    0.2569   -0.9057 H       1  LIG1        0.0235
     76 H          -1.5137    0.4329   -1.1049 H       1  LIG1        0.0235
     77 HA          1.7411   -1.9516    1.0306 H       1  LIG1        0.0567
     78 H           2.2570    0.5525    2.6855 H       1  LIG1        0.0287
     79 H           2.8467   -1.0500    3.0555 H       1  LIG1        0.0287
     80 HA          0.6193    2.2375   -1.4539 H       1  LIG1        0.0952
     81 H           0.5004   -1.9338    3.1389 H       1  LIG1        0.0266
     82 H          -0.1131   -0.3092    2.8631 H       1  LIG1        0.0266
     83 H           0.4651    3.9598    0.1656 H       1  LIG1        0.0374
     84 H           1.6757    4.3566   -1.0288 H       1  LIG1        0.0374
     85 H           1.2444    0.4315    4.9376 H       1  LIG1        0.0263
     86 H           1.5681   -1.2780    5.2289 H       1  LIG1        0.0263
     87 H           4.4130    3.0389    0.4037 H       1  LIG1        0.0818
     88 H          -1.1945    0.0393    5.1189 H       1  LIG1        0.0230
     89 H          -0.3559   -0.5399    6.5669 H       1  LIG1        0.0230
     90 H          -0.9182   -1.6995    5.3486 H       1  LIG1        0.0230
     91 H           0.1126    5.5209    1.8736 H       1  LIG1        0.0624
     92 H           4.3078    5.9808    4.5042 H       1  LIG1        0.0638
     93 H           0.1890    6.9575    3.8732 H       1  LIG1        0.0618
     94 H           2.2765    7.1798    5.1735 H       1  LIG1        0.0618
     95 H           7.7789    5.6414    4.2269 H       1  LIG1        0.0661
     96 H           8.0623    4.1456    3.3128 H       1  LIG1        0.0661
     97 H           7.4401    4.0711    4.9821 H       1  LIG1        0.0661
@<TRIPOS>BOND
     1     1    21    2
     2     2    24    2
     3     3    30    2
     4     4    34   ar
     5     5    34   ar
     6     6    44    1
     7     6    46    1
     8     7    44    2
     9     8    13    1
    10     8    14    1
    11     9    21   am
    12    10    24   am
    13    10    30   am
    14    12    39   ar
    15    12    38   ar
    16    12    44   am
    17    13    15    1
    18    13    22    1
    19    14    16    1
    20    14    23    1
    21    15    17    1
    22    16    17    1
    23    18     9    1
    24    18    24    1
    25    18    20    1
    26    19    20    1
    27    19    27    1
    28    19    26    1
    29    19    25    1
    30    21     8   am
    31    28    34    1
    32    28    29    1
    33    28    10    1
    34    29    32    1
    35    31    33    1
    36    31    11    1
    37    31    30    1
    38    32    36    1
    39    33    35    1
    40    35    38   ar
    41    35    37   ar
    42    36    40    1
    43    37    39   ar
    44    37    41   ar
    45    39    42   ar
    46    41    43   ar
    47    42    45   ar
    48    43    45   ar
    49     9    47    1
    50    11    48    1
    51    11    49    1
    52    11    50    1
    53    13    51    1
    54    14    52    1
    55    15    53    1
    56    15    54    1
    57    16    55    1
    58    16    56    1
    59    17    57    1
    60    17    58    1
    61    18    59    1
    62    20    60    1
    63    20    61    1
    64    22    62    1
    65    22    63    1
    66    22    64    1
    67    23    65    1
    68    23    66    1
    69    23    67    1
    70    25    68    1
    71    25    69    1
    72    25    70    1
    73    26    71    1
    74    26    72    1
    75    26    73    1
    76    27    74    1
    77    27    75    1
    78    27    76    1
    79    28    77    1
    80    29    78    1
    81    29    79    1
    82    31    80    1
    83    32    81    1
    84    32    82    1
    85    33    83    1
    86    33    84    1
    87    36    85    1
    88    36    86    1
    89    38    87    1
    90    40    88    1
    91    40    89    1
    92    40    90    1
    93    41    91    1
    94    42    92    1
    95    43    93    1
    96    45    94    1
    97    46    95    1
    98    46    96    1
    99    46    97    1
@<TRIPOS>MOLECULE
23693553
 97 99 0 0 0
SMALL
GASTEIGER

@<TRIPOS>ATOM
      1 O           0.3608   -4.4787    0.3072 O.2     1  LIG1       -0.2526
      2 O           0.5883    0.1042   -2.0844 O.2     1  LIG1       -0.2731
      3 O           0.6837    1.3802    1.5930 O.2     1  LIG1       -0.2689
      4 O           4.4242   -1.6082    0.8913 O.co2   1  LIG1       -0.5479
      5 OXT         3.4837   -0.4773   -0.8333 O.co2   1  LIG1       -0.5479
      6 O           4.4455    6.2542    4.5070 O.3     1  LIG1       -0.4515
      7 O           2.7992    7.3919    3.3510 O.2     1  LIG1       -0.2227
      8 N           2.5537   -4.9260   -0.1934 N.am    1  LIG1       -0.2801
      9 N           1.3551   -3.2002   -1.2835 N.am    1  LIG1       -0.2879
     10 N           1.1016   -0.3269    0.1150 N.am    1  LIG1       -0.2273
     11 N           2.7240    1.7947   -1.3728 N.4     1  LIG1        0.2276
     12 N           3.4628    5.3049    2.6695 N.ar    1  LIG1       -0.2526
     13 C           3.8049   -4.6467   -0.9404 C.3     1  LIG1        0.0249
     14 C           2.5668   -5.8233    0.9917 C.3     1  LIG1        0.0249
     15 C           5.0971   -5.2045   -0.3264 C.3     1  LIG1       -0.0344
     16 C           3.9397   -6.2379    1.5406 C.3     1  LIG1       -0.0344
     17 C           5.0317   -5.2554    1.1843 C.3     1  LIG1       -0.0497
     18 CA          0.2821   -2.1962   -1.4713 C.3     1  LIG1        0.1019
     19 C          -2.3514   -1.7006   -1.2377 C.3     1  LIG1       -0.0356
     20 C          -1.0907   -2.5311   -0.8429 C.3     1  LIG1       -0.0210
     21 C           1.3524   -4.2309   -0.3756 C.2     1  LIG1        0.3033
     22 C           3.7061   -5.1301   -2.3928 C.3     1  LIG1       -0.0464
     23 C           1.7269   -7.0898    0.7633 C.3     1  LIG1       -0.0464
     24 C           0.7075   -0.7244   -1.1705 C.2     1  LIG1        0.2429
     25 C          -2.3824   -0.3239   -0.5515 C.3     1  LIG1       -0.0600
     26 C          -2.4769   -1.5238   -2.7580 C.3     1  LIG1       -0.0600
     27 C          -3.5892   -2.4850   -0.7415 C.3     1  LIG1       -0.0600
     28 CA          2.0150   -1.2128    0.9052 C.3     1  LIG1        0.0730
     29 C           2.0384   -0.9757    2.4272 C.3     1  LIG1       -0.0286
     30 C           1.1087    1.0255    0.4889 C.2     1  LIG1        0.2708
     31 CA          1.5054    2.0981   -0.5564 C.3     1  LIG1        0.0579
     32 C           2.4725   -2.2278    3.2084 C.3     1  LIG1       -0.0513
     33 C           1.5804    3.5232    0.0143 C.3     1  LIG1        0.0261
     34 C           3.4513   -1.1307    0.2702 C.2     1  LIG1        0.0626
     35 C           2.5812    3.9323    1.0682 C.ar    1  LIG1       -0.0158
     36 C           2.6878   -1.9731    4.7005 C.3     1  LIG1       -0.0558
     37 C           3.7097    3.2869    1.6699 C.ar    1  LIG1        0.0038
     38 C           2.5060    5.1728    1.6754 C.ar    1  LIG1        0.0202
     39 C           4.2581    4.1582    2.6309 C.ar    1  LIG1        0.0598
     40 C           3.8791   -1.0704    4.9875 C.3     1  LIG1       -0.0653
     41 C           4.3384    2.0355    1.5104 C.ar    1  LIG1       -0.0523
     42 C           5.4115    3.8031    3.3675 C.ar    1  LIG1       -0.0371
     43 C           5.4630    1.6720    2.2534 C.ar    1  LIG1       -0.0611
     44 C           3.5310    6.4296    3.5238 C.2     1  LIG1        0.4196
     45 C           6.0000    2.5547    3.1680 C.ar    1  LIG1       -0.0598
     46 C           4.5132    7.3113    5.4645 C.3     1  LIG1        0.0835
     47 H           2.2240   -2.9823   -1.7444 H       1  LIG1        0.1510
     48 H1          2.5296    1.8121   -2.3762 H       1  LIG1        0.2002
     49 H2          3.0330    0.7933   -1.2203 H       1  LIG1        0.2002
     50 H3          3.5544    2.3461   -1.1436 H       1  LIG1        0.2002
     51 H           3.9241   -3.5598   -0.9551 H       1  LIG1        0.0498
     52 H           2.0838   -5.2558    1.8002 H       1  LIG1        0.0498
     53 H           5.9479   -4.5892   -0.6435 H       1  LIG1        0.0283
     54 H           5.2957   -6.2153   -0.7076 H       1  LIG1        0.0283
     55 H           4.2189   -7.2284    1.1567 H       1  LIG1        0.0283
     56 H           3.8776   -6.3497    2.6305 H       1  LIG1        0.0283
     57 H           4.8296   -4.2677    1.6095 H       1  LIG1        0.0266
     58 H           5.9889   -5.6000    1.5908 H       1  LIG1        0.0266
     59 HA          0.1514   -2.2261   -2.5621 H       1  LIG1        0.0595
     60 H          -1.0011   -2.5009    0.2510 H       1  LIG1        0.0293
     61 H          -1.3146   -3.5717   -1.1161 H       1  LIG1        0.0293
     62 H           3.5669   -6.2158   -2.4340 H       1  LIG1        0.0248
     63 H           4.6198   -4.8810   -2.9439 H       1  LIG1        0.0248
     64 H           2.8670   -4.6764   -2.9267 H       1  LIG1        0.0248
     65 H           2.1353   -7.6860   -0.0592 H       1  LIG1        0.0248
     66 H           0.6863   -6.8632    0.5156 H       1  LIG1        0.0248
     67 H           1.7152   -7.7105    1.6665 H       1  LIG1        0.0248
     68 H          -2.1612   -0.4079    0.5182 H       1  LIG1        0.0235
     69 H          -3.3716    0.1395   -0.6460 H       1  LIG1        0.0235
     70 H          -1.6731    0.3788   -0.9924 H       1  LIG1        0.0235
     71 H          -2.4409   -2.4905   -3.2724 H       1  LIG1        0.0235
     72 H          -1.6781   -0.8959   -3.1636 H       1  LIG1        0.0235
     73 H          -3.4267   -1.0434   -3.0206 H       1  LIG1        0.0235
     74 H          -3.6555   -3.4680   -1.2217 H       1  LIG1        0.0235
     75 H          -4.5184   -1.9483   -0.9640 H       1  LIG1        0.0235
     76 H          -3.5468   -2.6437    0.3421 H       1  LIG1        0.0235
     77 HA          1.6539   -2.2217    0.7922 H       1  LIG1        0.0567
     78 H           1.0331   -0.7172    2.7801 H       1  LIG1        0.0287
     79 H           2.6946   -0.1326    2.6589 H       1  LIG1        0.0287
     80 HA          0.6808    2.1491   -1.2760 H       1  LIG1        0.0952
     81 H           3.3868   -2.6611    2.7948 H       1  LIG1        0.0266
     82 H           1.6951   -2.9942    3.0958 H       1  LIG1        0.0266
     83 H           0.5856    3.7592    0.4225 H       1  LIG1        0.0374
     84 H           1.7149    4.2135   -0.8318 H       1  LIG1        0.0374
     85 H           2.8603   -2.9386    5.1913 H       1  LIG1        0.0263
     86 H           1.7830   -1.5455    5.1461 H       1  LIG1        0.0263
     87 H           1.7973    5.9796    1.5249 H       1  LIG1        0.0818
     88 H           4.7798   -1.4308    4.4798 H       1  LIG1        0.0230
     89 H           4.0828   -1.0475    6.0626 H       1  LIG1        0.0230
     90 H           3.6901   -0.0422    4.6662 H       1  LIG1        0.0230
     91 H           3.9634    1.2979    0.8247 H       1  LIG1        0.0624
     92 H           5.8557    4.4704    4.0993 H       1  LIG1        0.0638
     93 H           5.9010    0.6838    2.1119 H       1  LIG1        0.0618
     94 H           6.8763    2.2686    3.7447 H       1  LIG1        0.0618
     95 H           4.9100    6.8954    6.3952 H       1  LIG1        0.0661
     96 H           3.5299    7.7419    5.6780 H       1  LIG1        0.0661
     97 H           5.2005    8.0819    5.1052 H       1  LIG1        0.0661
@<TRIPOS>BOND
     1     1    21    2
     2     2    24    2
     3     3    30    2
     4     4    34   ar
     5     5    34   ar
     6     6    44    1
     7     6    46    1
     8     7    44    2
     9     8    13    1
    10     8    14    1
    11     9    21   am
    12    10    24   am
    13    10    30   am
    14    12    39   ar
    15    12    38   ar
    16    12    44   am
    17    13    15    1
    18    13    22    1
    19    14    16    1
    20    14    23    1
    21    15    17    1
    22    16    17    1
    23    18     9    1
    24    18    24    1
    25    18    20    1
    26    19    20    1
    27    19    27    1
    28    19    26    1
    29    19    25    1
    30    21     8   am
    31    28    34    1
    32    28    29    1
    33    28    10    1
    34    29    32    1
    35    31    33    1
    36    31    11    1
    37    31    30    1
    38    32    36    1
    39    33    35    1
    40    35    38   ar
    41    35    37   ar
    42    36    40    1
    43    37    39   ar
    44    37    41   ar
    45    39    42   ar
    46    41    43   ar
    47    42    45   ar
    48    43    45   ar
    49     9    47    1
    50    11    48    1
    51    11    49    1
    52    11    50    1
    53    13    51    1
    54    14    52    1
    55    15    53    1
    56    15    54    1
    57    16    55    1
    58    16    56    1
    59    17    57    1
    60    17    58    1
    61    18    59    1
    62    20    60    1
    63    20    61    1
    64    22    62    1
    65    22    63    1
    66    22    64    1
    67    23    65    1
    68    23    66    1
    69    23    67    1
    70    25    68    1
    71    25    69    1
    72    25    70    1
    73    26    71    1
    74    26    72    1
    75    26    73    1
    76    27    74    1
    77    27    75    1
    78    27    76    1
    79    28    77    1
    80    29    78    1
    81    29    79    1
    82    31    80    1
    83    32    81    1
    84    32    82    1
    85    33    83    1
    86    33    84    1
    87    36    85    1
    88    36    86    1
    89    38    87    1
    90    40    88    1
    91    40    89    1
    92    40    90    1
    93    41    91    1
    94    42    92    1
    95    43    93    1
    96    45    94    1
    97    46    95    1
    98    46    96    1
    99    46    97    1
@<TRIPOS>MOLECULE
23693553
 97 99 0 0 0
SMALL
GASTEIGER

@<TRIPOS>ATOM
      1 O           2.5326   -2.6394   -3.3458 O.2     1  LIG1       -0.2526
      2 O           0.3129    0.1440   -2.0011 O.2     1  LIG1       -0.2731
      3 O           0.5423    1.3833    1.5917 O.2     1  LIG1       -0.2689
      4 O           4.0898   -1.4538    1.6070 O.co2   1  LIG1       -0.5479
      5 OXT         3.5143   -0.4532   -0.3565 O.co2   1  LIG1       -0.5479
      6 O           4.6047    6.4410    4.3748 O.3     1  LIG1       -0.4515
      7 O           2.8805    7.4953    3.2547 O.2     1  LIG1       -0.2227
      8 N           3.5013   -4.3189   -2.0729 N.am    1  LIG1       -0.2801
      9 N           1.5827   -3.1389   -1.3667 N.am    1  LIG1       -0.2879
     10 N           0.9782   -0.3457    0.1294 N.am    1  LIG1       -0.2273
     11 N           2.7542    1.6805   -1.2700 N.4     1  LIG1        0.2276
     12 N           3.5299    5.3829    2.6503 N.ar    1  LIG1       -0.2526
     13 C           3.5561   -5.1637   -0.8478 C.3     1  LIG1        0.0249
     14 C           4.4400   -4.5709   -3.1941 C.3     1  LIG1        0.0249
     15 C           4.4790   -6.3877   -0.9135 C.3     1  LIG1       -0.0344
     16 C           5.2130   -5.9014   -3.1696 C.3     1  LIG1       -0.0344
     17 C           4.5545   -6.9572   -2.3096 C.3     1  LIG1       -0.0497
     18 CA          0.4588   -2.2287   -1.5855 C.3     1  LIG1        0.1019
     19 C          -1.5452   -3.9765   -1.5656 C.3     1  LIG1       -0.0356
     20 C          -0.8444   -2.7388   -0.9296 C.3     1  LIG1       -0.0210
     21 C           2.5514   -3.3160   -2.3177 C.2     1  LIG1        0.3033
     22 C           3.9455   -4.3729    0.3999 C.3     1  LIG1       -0.0464
     23 C           5.4429   -3.4216   -3.3740 C.3     1  LIG1       -0.0464
     24 C           0.6570   -0.7206   -1.1821 C.2     1  LIG1        0.2429
     25 C          -1.8194   -3.7713   -3.0644 C.3     1  LIG1       -0.0600
     26 C          -0.7273   -5.2642   -1.3761 C.3     1  LIG1       -0.0600
     27 C          -2.8993   -4.1636   -0.8477 C.3     1  LIG1       -0.0600
     28 CA          1.7472   -1.2597    1.0192 C.3     1  LIG1        0.0730
     29 C           1.4400   -1.2015    2.5276 C.3     1  LIG1       -0.0286
     30 C           1.0167    1.0107    0.5133 C.2     1  LIG1        0.2708
     31 CA          1.5313    2.0663   -0.5014 C.3     1  LIG1        0.0579
     32 C          -0.0097   -1.5872    2.8450 C.3     1  LIG1       -0.0513
     33 C           1.6360    3.4978    0.0623 C.3     1  LIG1        0.0261
     34 C           3.2725   -1.0785    0.7324 C.2     1  LIG1        0.0626
     35 C           2.6274    3.9389    1.1172 C.ar    1  LIG1       -0.0158
     36 C          -0.2674   -1.7799    4.3411 C.3     1  LIG1       -0.0558
     37 C           3.7598    3.3248    1.7393 C.ar    1  LIG1        0.0038
     38 C           2.5491    5.1983    1.6884 C.ar    1  LIG1        0.0202
     39 C           4.3258    4.2360    2.6505 C.ar    1  LIG1        0.0598
     40 C           0.3757   -3.0439    4.8969 C.3     1  LIG1       -0.0653
     41 C           4.3844    2.0706    1.6301 C.ar    1  LIG1       -0.0523
     42 C           5.4944    3.9120    3.3810 C.ar    1  LIG1       -0.0371
     43 C           5.5217    1.7351    2.3652 C.ar    1  LIG1       -0.0611
     44 C           3.6301    6.5495    3.4413 C.2     1  LIG1        0.4196
     45 C           6.0795    2.6559    3.2270 C.ar    1  LIG1       -0.0598
     46 C           4.7627    7.5476    5.2636 C.3     1  LIG1        0.0835
     47 H           1.4916   -3.8428   -0.6559 H       1  LIG1        0.1510
     48 H1          2.5427    1.4636   -2.2487 H       1  LIG1        0.2002
     49 H2          3.1352    0.7537   -0.9230 H       1  LIG1        0.2002
     50 H3          3.5479    2.3198   -1.1888 H       1  LIG1        0.2002
     51 H           2.5410   -5.5545   -0.7046 H       1  LIG1        0.0498
     52 H           3.8165   -4.6021   -4.0992 H       1  LIG1        0.0498
     53 H           4.1242   -7.1514   -0.2105 H       1  LIG1        0.0283
     54 H           5.4920   -6.1195   -0.5809 H       1  LIG1        0.0283
     55 H           6.2336   -5.7371   -2.7965 H       1  LIG1        0.0283
     56 H           5.3317   -6.2760   -4.1937 H       1  LIG1        0.0283
     57 H           3.5597   -7.2182   -2.6862 H       1  LIG1        0.0266
     58 H           5.1611   -7.8690   -2.3069 H       1  LIG1        0.0266
     59 HA          0.2969   -2.1836   -2.6690 H       1  LIG1        0.0595
     60 H          -1.5678   -1.9106   -0.9342 H       1  LIG1        0.0293
     61 H          -0.6549   -2.9549    0.1279 H       1  LIG1        0.0293
     62 H           4.8221   -3.7443    0.2121 H       1  LIG1        0.0248
     63 H           4.1731   -5.0355    1.2431 H       1  LIG1        0.0248
     64 H           3.1261   -3.7418    0.7320 H       1  LIG1        0.0248
     65 H           6.0492   -3.2866   -2.4721 H       1  LIG1        0.0248
     66 H           4.9500   -2.4687   -3.5826 H       1  LIG1        0.0248
     67 H           6.1160   -3.6268   -4.2145 H       1  LIG1        0.0248
     68 H          -2.3472   -2.8285   -3.2450 H       1  LIG1        0.0235
     69 H          -2.4396   -4.5817   -3.4653 H       1  LIG1        0.0235
     70 H          -0.8942   -3.7604   -3.6498 H       1  LIG1        0.0235
     71 H          -0.4289   -5.3942   -0.3300 H       1  LIG1        0.0235
     72 H           0.1753   -5.2697   -1.9940 H       1  LIG1        0.0235
     73 H          -1.3103   -6.1467   -1.6645 H       1  LIG1        0.0235
     74 H          -2.7583   -4.3156    0.2284 H       1  LIG1        0.0235
     75 H          -3.4418   -5.0319   -1.2385 H       1  LIG1        0.0235
     76 H          -3.5424   -3.2861   -0.9808 H       1  LIG1        0.0235
     77 HA          1.5096   -2.2810    0.7440 H       1  LIG1        0.0567
     78 H           1.6803   -0.2218    2.9541 H       1  LIG1        0.0287
     79 H           2.1059   -1.9081    3.0360 H       1  LIG1        0.0287
     80 HA          0.7480    2.1641   -1.2601 H       1  LIG1        0.0952
     81 H          -0.2738   -2.5131    2.3223 H       1  LIG1        0.0266
     82 H          -0.6848   -0.8098    2.4705 H       1  LIG1        0.0266
     83 H           0.6402    3.7596    0.4519 H       1  LIG1        0.0374
     84 H           1.7912    4.1699   -0.7955 H       1  LIG1        0.0374
     85 H          -1.3501   -1.8496    4.4994 H       1  LIG1        0.0263
     86 H           0.0835   -0.9071    4.9029 H       1  LIG1        0.0263
     87 H           1.8357    5.9971    1.5166 H       1  LIG1        0.0818
     88 H           0.0664   -3.9257    4.3258 H       1  LIG1        0.0230
     89 H           0.0737   -3.1941    5.9382 H       1  LIG1        0.0230
     90 H           1.4674   -2.9866    4.8745 H       1  LIG1        0.0230
     91 H           3.9894    1.3124    0.9866 H       1  LIG1        0.0624
     92 H           5.9531    4.6087    4.0751 H       1  LIG1        0.0638
     93 H           5.9484    0.7376    2.2597 H       1  LIG1        0.0618
     94 H           6.9659    2.3932    3.7980 H       1  LIG1        0.0618
     95 H           4.9535    7.1484    6.2638 H       1  LIG1        0.0661
     96 H           3.8810    8.1928    5.3140 H       1  LIG1        0.0661
     97 H           5.6339    8.1283    4.9496 H       1  LIG1        0.0661
@<TRIPOS>BOND
     1     1    21    2
     2     2    24    2
     3     3    30    2
     4     4    34   ar
     5     5    34   ar
     6     6    44    1
     7     6    46    1
     8     7    44    2
     9     8    13    1
    10     8    14    1
    11     9    21   am
    12    10    24   am
    13    10    30   am
    14    12    39   ar
    15    12    38   ar
    16    12    44   am
    17    13    15    1
    18    13    22    1
    19    14    16    1
    20    14    23    1
    21    15    17    1
    22    16    17    1
    23    18     9    1
    24    18    24    1
    25    18    20    1
    26    19    20    1
    27    19    27    1
    28    19    26    1
    29    19    25    1
    30    21     8   am
    31    28    34    1
    32    28    29    1
    33    28    10    1
    34    29    32    1
    35    31    33    1
    36    31    11    1
    37    31    30    1
    38    32    36    1
    39    33    35    1
    40    35    38   ar
    41    35    37   ar
    42    36    40    1
    43    37    39   ar
    44    37    41   ar
    45    39    42   ar
    46    41    43   ar
    47    42    45   ar
    48    43    45   ar
    49     9    47    1
    50    11    48    1
    51    11    49    1
    52    11    50    1
    53    13    51    1
    54    14    52    1
    55    15    53    1
    56    15    54    1
    57    16    55    1
    58    16    56    1
    59    17    57    1
    60    17    58    1
    61    18    59    1
    62    20    60    1
    63    20    61    1
    64    22    62    1
    65    22    63    1
    66    22    64    1
    67    23    65    1
    68    23    66    1
    69    23    67    1
    70    25    68    1
    71    25    69    1
    72    25    70    1
    73    26    71    1
    74    26    72    1
    75    26    73    1
    76    27    74    1
    77    27    75    1
    78    27    76    1
    79    28    77    1
    80    29    78    1
    81    29    79    1
    82    31    80    1
    83    32    81    1
    84    32    82    1
    85    33    83    1
    86    33    84    1
    87    36    85    1
    88    36    86    1
    89    38    87    1
    90    40    88    1
    91    40    89    1
    92    40    90    1
    93    41    91    1
    94    42    92    1
    95    43    93    1
    96    45    94    1
    97    46    95    1
    98    46    96    1
    99    46    97    1
@<TRIPOS>MOLECULE
23693553
 97 99 0 0 0
SMALL
GASTEIGER

@<TRIPOS>ATOM
      1 O           0.3749   -4.3923    0.4455 O.2     1  LIG1       -0.2526
      2 O           0.5762    0.1300   -2.0598 O.2     1  LIG1       -0.2731
      3 O           0.6084    1.5790    1.5132 O.2     1  LIG1       -0.2689
      4 O           4.2437   -1.7296    1.0730 O.co2   1  LIG1       -0.5479
      5 OXT         3.4529   -0.5401   -0.6924 O.co2   1  LIG1       -0.5479
      6 O           4.9433    6.5289    4.0213 O.3     1  LIG1       -0.4515
      7 O           3.1881    7.5813    2.9513 O.2     1  LIG1       -0.2227
      8 N           2.5505   -4.8568   -0.1128 N.am    1  LIG1       -0.2801
      9 N           1.3415   -3.1263   -1.1713 N.am    1  LIG1       -0.2879
     10 N           1.0426   -0.2272    0.1623 N.am    1  LIG1       -0.2273
     11 N           2.7834    1.7147   -1.3991 N.4     1  LIG1        0.2276
     12 N           3.6992    5.3996    2.4591 N.ar    1  LIG1       -0.2526
     13 C           3.7709   -4.6245   -0.9214 C.3     1  LIG1        0.0249
     14 C           2.5742   -5.8148    1.0196 C.3     1  LIG1        0.0249
     15 C           5.0807   -5.1684   -0.3317 C.3     1  LIG1       -0.0344
     16 C           3.9569   -6.2276    1.5469 C.3     1  LIG1       -0.0344
     17 C           5.0404   -5.2380    1.1802 C.3     1  LIG1       -0.0497
     18 CA          0.2549   -2.1466   -1.3813 C.3     1  LIG1        0.1019
     19 C          -2.3819   -1.6831   -1.2045 C.3     1  LIG1       -0.0356
     20 C          -1.1191   -2.4870   -0.7612 C.3     1  LIG1       -0.0210
     21 C           1.3541   -4.1487   -0.2559 C.2     1  LIG1        0.3033
     22 C           3.5992   -5.1639   -2.3462 C.3     1  LIG1       -0.0464
     23 C           1.7549   -7.0766    0.7133 C.3     1  LIG1       -0.0464
     24 C           0.6682   -0.6688   -1.1130 C.2     1  LIG1        0.2429
     25 C          -2.4421   -0.2903   -0.5536 C.3     1  LIG1       -0.0600
     26 C          -2.4768   -1.5430   -2.7316 C.3     1  LIG1       -0.0600
     27 C          -3.6220   -2.4696   -0.7186 C.3     1  LIG1       -0.0600
     28 CA          1.8894   -1.1096    1.0222 C.3     1  LIG1        0.0730
     29 C           1.9845   -0.7728    2.5215 C.3     1  LIG1       -0.0286
     30 C           1.0869    1.1415    0.4627 C.2     1  LIG1        0.2708
     31 CA          1.5801    2.1367   -0.6154 C.3     1  LIG1        0.0579
     32 C           0.6676   -0.9930    3.2728 C.3     1  LIG1       -0.0513
     33 C           1.7335    3.5785   -0.1081 C.3     1  LIG1        0.0261
     34 C           3.3382   -1.1658    0.4225 C.2     1  LIG1        0.0626
     35 C           2.7347    3.9788    0.9478 C.ar    1  LIG1       -0.0158
     36 C           0.8407   -0.6613    4.7561 C.3     1  LIG1       -0.0558
     37 C           3.8246    3.3091    1.5912 C.ar    1  LIG1        0.0038
     38 C           2.7028    5.2418    1.5099 C.ar    1  LIG1        0.0202
     39 C           4.3987    4.1930    2.5272 C.ar    1  LIG1        0.0598
     40 C          -0.4806   -0.7133    5.5029 C.3     1  LIG1       -0.0653
     41 C           4.3947    2.0241    1.4924 C.ar    1  LIG1       -0.0523
     42 C           5.4886    3.7944    3.3348 C.ar    1  LIG1       -0.0371
     43 C           5.4691    1.6264    2.2915 C.ar    1  LIG1       -0.0611
     44 C           3.8995    6.6077    3.1636 C.2     1  LIG1        0.4196
     45 C           6.0097    2.5074    3.2055 C.ar    1  LIG1       -0.0598
     46 C           5.2091    7.7393    4.7286 C.3     1  LIG1        0.0835
     47 H           2.2106   -2.8990   -1.6273 H       1  LIG1        0.1510
     48 H1          2.5627    1.5998   -2.3918 H       1  LIG1        0.2002
     49 H2          3.0817    0.7349   -1.1321 H       1  LIG1        0.2002
     50 H3          3.6225    2.2826   -1.2628 H       1  LIG1        0.2002
     51 H           3.9052   -3.5411   -0.9896 H       1  LIG1        0.0498
     52 H           2.0777   -5.3033    1.8570 H       1  LIG1        0.0498
     53 H           5.9169   -4.5370   -0.6561 H       1  LIG1        0.0283
     54 H           5.2902   -6.1715   -0.7270 H       1  LIG1        0.0283
     55 H           4.2351   -7.2146    1.1535 H       1  LIG1        0.0283
     56 H           3.9114   -6.3461    2.6367 H       1  LIG1        0.0283
     57 H           4.8415   -4.2572    1.6224 H       1  LIG1        0.0266
     58 H           6.0061   -5.5825    1.5660 H       1  LIG1        0.0266
     59 HA          0.1323   -2.2019   -2.4713 H       1  LIG1        0.0595
     60 H          -1.0475   -2.4264    0.3326 H       1  LIG1        0.0293
     61 H          -1.3239   -3.5382   -1.0077 H       1  LIG1        0.0293
     62 H           3.4415   -6.2479   -2.3374 H       1  LIG1        0.0248
     63 H           4.4892   -4.9525   -2.9492 H       1  LIG1        0.0248
     64 H           2.7414   -4.7153   -2.8553 H       1  LIG1        0.0248
     65 H           2.1796   -7.6218   -0.1356 H       1  LIG1        0.0248
     66 H           0.7155   -6.8444    0.4656 H       1  LIG1        0.0248
     67 H           1.7415   -7.7459    1.5810 H       1  LIG1        0.0248
     68 H          -2.2546   -0.3471    0.5244 H       1  LIG1        0.0235
     69 H          -3.4302    0.1646   -0.6913 H       1  LIG1        0.0235
     70 H          -1.7219    0.4052   -0.9885 H       1  LIG1        0.0235
     71 H          -2.4115   -2.5200   -3.2229 H       1  LIG1        0.0235
     72 H          -1.6814   -0.9086   -3.1341 H       1  LIG1        0.0235
     73 H          -3.4290   -1.0865   -3.0263 H       1  LIG1        0.0235
     74 H          -3.6665   -3.4639   -1.1777 H       1  LIG1        0.0235
     75 H          -4.5514   -1.9486   -0.9753 H       1  LIG1        0.0235
     76 H          -3.6033   -2.6027    0.3690 H       1  LIG1        0.0235
     77 HA          1.4732   -2.1076    0.9853 H       1  LIG1        0.0567
     78 H           2.3451    0.2493    2.6743 H       1  LIG1        0.0287
     79 H           2.7364   -1.4196    2.9926 H       1  LIG1        0.0287
     80 HA          0.7722    2.2106   -1.3527 H       1  LIG1        0.0952
     81 H           0.3533   -2.0387    3.1673 H       1  LIG1        0.0266
     82 H          -0.1307   -0.3790    2.8450 H       1  LIG1        0.0266
     83 H           0.7468    3.8947    0.2635 H       1  LIG1        0.0374
     84 H           1.9285    4.2179   -0.9817 H       1  LIG1        0.0374
     85 H           1.2744    0.3394    4.8695 H       1  LIG1        0.0263
     86 H           1.5423   -1.3704    5.2115 H       1  LIG1        0.0263
     87 H           2.0297    6.0709    1.3190 H       1  LIG1        0.0818
     88 H          -1.1765    0.0370    5.1140 H       1  LIG1        0.0230
     89 H          -0.3210   -0.5074    6.5662 H       1  LIG1        0.0230
     90 H          -0.9476   -1.6985    5.4114 H       1  LIG1        0.0230
     91 H           4.0079    1.2860    0.8144 H       1  LIG1        0.0624
     92 H           5.9337    4.4562    4.0706 H       1  LIG1        0.0638
     93 H           5.8594    0.6137    2.1979 H       1  LIG1        0.0618
     94 H           6.8392    2.1917    3.8337 H       1  LIG1        0.0618
     95 H           5.9793    7.5311    5.4769 H       1  LIG1        0.0661
     96 H           4.3135    8.0971    5.2456 H       1  LIG1        0.0661
     97 H           5.5902    8.4994    4.0397 H       1  LIG1        0.0661
@<TRIPOS>BOND
     1     1    21    2
     2     2    24    2
     3     3    30    2
     4     4    34   ar
     5     5    34   ar
     6     6    44    1
     7     6    46    1
     8     7    44    2
     9     8    13    1
    10     8    14    1
    11     9    21   am
    12    10    24   am
    13    10    30   am
    14    12    39   ar
    15    12    38   ar
    16    12    44   am
    17    13    15    1
    18    13    22    1
    19    14    16    1
    20    14    23    1
    21    15    17    1
    22    16    17    1
    23    18     9    1
    24    18    24    1
    25    18    20    1
    26    19    20    1
    27    19    27    1
    28    19    26    1
    29    19    25    1
    30    21     8   am
    31    28    34    1
    32    28    29    1
    33    28    10    1
    34    29    32    1
    35    31    33    1
    36    31    11    1
    37    31    30    1
    38    32    36    1
    39    33    35    1
    40    35    38   ar
    41    35    37   ar
    42    36    40    1
    43    37    39   ar
    44    37    41   ar
    45    39    42   ar
    46    41    43   ar
    47    42    45   ar
    48    43    45   ar
    49     9    47    1
    50    11    48    1
    51    11    49    1
    52    11    50    1
    53    13    51    1
    54    14    52    1
    55    15    53    1
    56    15    54    1
    57    16    55    1
    58    16    56    1
    59    17    57    1
    60    17    58    1
    61    18    59    1
    62    20    60    1
    63    20    61    1
    64    22    62    1
    65    22    63    1
    66    22    64    1
    67    23    65    1
    68    23    66    1
    69    23    67    1
    70    25    68    1
    71    25    69    1
    72    25    70    1
    73    26    71    1
    74    26    72    1
    75    26    73    1
    76    27    74    1
    77    27    75    1
    78    27    76    1
    79    28    77    1
    80    29    78    1
    81    29    79    1
    82    31    80    1
    83    32    81    1
    84    32    82    1
    85    33    83    1
    86    33    84    1
    87    36    85    1
    88    36    86    1
    89    38    87    1
    90    40    88    1
    91    40    89    1
    92    40    90    1
    93    41    91    1
    94    42    92    1
    95    43    93    1
    96    45    94    1
    97    46    95    1
    98    46    96    1
    99    46    97    1
@<TRIPOS>MOLECULE
23693553
 97 99 0 0 0
SMALL
GASTEIGER

@<TRIPOS>ATOM
      1 O           0.3817   -4.3859    0.4440 O.2     1  LIG1       -0.2526
      2 O           0.6081    0.1304   -2.0720 O.2     1  LIG1       -0.2731
      3 O           0.6136    1.5682    1.5047 O.2     1  LIG1       -0.2689
      4 O           4.2991   -1.6843    1.0623 O.co2   1  LIG1       -0.5479
      5 OXT         3.4956   -0.5038   -0.7049 O.co2   1  LIG1       -0.5479
      6 O           4.4461    6.2648    4.5165 O.3     1  LIG1       -0.4515
      7 O           2.8161    7.3918    3.3321 O.2     1  LIG1       -0.2227
      8 N           2.5567   -4.8536   -0.1127 N.am    1  LIG1       -0.2801
      9 N           1.3488   -3.1292   -1.1804 N.am    1  LIG1       -0.2879
     10 N           1.0745   -0.2266    0.1499 N.am    1  LIG1       -0.2273
     11 N           2.7856    1.7294   -1.4183 N.4     1  LIG1        0.2276
     12 N           3.5015    5.3092    2.6598 N.ar    1  LIG1       -0.2526
     13 C           3.7773   -4.6240   -0.9215 C.3     1  LIG1        0.0249
     14 C           2.5783   -5.8123    1.0190 C.3     1  LIG1        0.0249
     15 C           5.0872   -5.1609   -0.3260 C.3     1  LIG1       -0.0344
     16 C           3.9606   -6.2195    1.5515 C.3     1  LIG1       -0.0344
     17 C           5.0415   -5.2264    1.1861 C.3     1  LIG1       -0.0497
     18 CA          0.2685   -2.1423   -1.3873 C.3     1  LIG1        0.1019
     19 C          -2.3656   -1.6669   -1.2026 C.3     1  LIG1       -0.0356
     20 C          -1.1042   -2.4727   -0.7590 C.3     1  LIG1       -0.0210
     21 C           1.3604   -4.1468   -0.2603 C.2     1  LIG1        0.3033
     22 C           3.6076   -5.1738   -2.3426 C.3     1  LIG1       -0.0464
     23 C           1.7652   -7.0763    0.7063 C.3     1  LIG1       -0.0464
     24 C           0.6948   -0.6673   -1.1235 C.2     1  LIG1        0.2429
     25 C          -2.4198   -0.2715   -0.5572 C.3     1  LIG1       -0.0600
     26 C          -2.4632   -1.5324   -2.7300 C.3     1  LIG1       -0.0600
     27 C          -3.6071   -2.4478   -0.7111 C.3     1  LIG1       -0.0600
     28 CA          1.9366   -1.1005    1.0023 C.3     1  LIG1        0.0730
     29 C           1.9935   -0.7991    2.5109 C.3     1  LIG1       -0.0286
     30 C           1.1047    1.1413    0.4555 C.2     1  LIG1        0.2708
     31 CA          1.5885    2.1443   -0.6208 C.3     1  LIG1        0.0579
     32 C           0.6689   -1.1100    3.2189 C.3     1  LIG1       -0.0513
     33 C           1.7461    3.5856   -0.1150 C.3     1  LIG1        0.0261
     34 C           3.3878   -1.1300    0.4104 C.2     1  LIG1        0.0626
     35 C           2.6890    3.9647    0.9989 C.ar    1  LIG1       -0.0158
     36 C           0.7381   -0.8666    4.7287 C.3     1  LIG1       -0.0558
     37 C           3.7953    3.3106    1.6307 C.ar    1  LIG1        0.0038
     38 C           2.5797    5.1886    1.6331 C.ar    1  LIG1        0.0202
     39 C           4.2943    4.1599    2.6386 C.ar    1  LIG1        0.0598
     40 C           1.5837   -1.8970    5.4643 C.3     1  LIG1       -0.0653
     41 C           4.4408    2.0686    1.4624 C.ar    1  LIG1       -0.0523
     42 C           5.4097    3.7877    3.4230 C.ar    1  LIG1       -0.0371
     43 C           5.5262    1.6882    2.2536 C.ar    1  LIG1       -0.0611
     44 C           3.5471    6.4304    3.5189 C.2     1  LIG1        0.4196
     45 C           6.0112    2.5462    3.2203 C.ar    1  LIG1       -0.0598
     46 C           4.4955    7.3390    5.4558 C.3     1  LIG1        0.0835
     47 H           2.2151   -2.9121   -1.6467 H       1  LIG1        0.1510
     48 H1          2.5467    1.5911   -2.4041 H       1  LIG1        0.2002
     49 H2          3.1036    0.7588   -1.1417 H       1  LIG1        0.2002
     50 H3          3.6177    2.3127   -1.3095 H       1  LIG1        0.2002
     51 H           3.9092   -3.5406   -0.9959 H       1  LIG1        0.0498
     52 H           2.0761   -5.3045    1.8545 H       1  LIG1        0.0498
     53 H           5.9220   -4.5270   -0.6492 H       1  LIG1        0.0283
     54 H           5.3023   -6.1642   -0.7178 H       1  LIG1        0.0283
     55 H           4.2436   -7.2065    1.1613 H       1  LIG1        0.0283
     56 H           3.9120   -6.3358    2.6414 H       1  LIG1        0.0283
     57 H           4.8366   -4.2448    1.6242 H       1  LIG1        0.0266
     58 H           6.0072   -5.5658    1.5765 H       1  LIG1        0.0266
     59 HA          0.1400   -2.1988   -2.4764 H       1  LIG1        0.0595
     60 H          -1.0276   -2.4058    0.3341 H       1  LIG1        0.0293
     61 H          -1.3149   -3.5243   -0.9984 H       1  LIG1        0.0293
     62 H           3.4525   -6.2582   -2.3259 H       1  LIG1        0.0248
     63 H           4.4970   -4.9644   -2.9468 H       1  LIG1        0.0248
     64 H           2.7484   -4.7314   -2.8548 H       1  LIG1        0.0248
     65 H           2.1951   -7.6182   -0.1425 H       1  LIG1        0.0248
     66 H           0.7259   -6.8462    0.4541 H       1  LIG1        0.0248
     67 H           1.7498   -7.7479    1.5719 H       1  LIG1        0.0248
     68 H          -2.2366   -0.3255    0.5216 H       1  LIG1        0.0235
     69 H          -3.4049    0.1885   -0.7002 H       1  LIG1        0.0235
     70 H          -1.6936    0.4177   -0.9922 H       1  LIG1        0.0235
     71 H          -2.3994   -2.5113   -3.2178 H       1  LIG1        0.0235
     72 H          -1.6681   -0.8999   -3.1361 H       1  LIG1        0.0235
     73 H          -3.4156   -1.0765   -3.0248 H       1  LIG1        0.0235
     74 H          -3.6555   -3.4437   -1.1664 H       1  LIG1        0.0235
     75 H          -4.5356   -1.9251   -0.9680 H       1  LIG1        0.0235
     76 H          -3.5867   -2.5770    0.3769 H       1  LIG1        0.0235
     77 HA          1.5478   -2.1072    0.9404 H       1  LIG1        0.0567
     78 H           2.2998    0.2342    2.7030 H       1  LIG1        0.0287
     79 H           2.7716   -1.4229    2.9653 H       1  LIG1        0.0287
     80 HA          0.7760    2.2184   -1.3533 H       1  LIG1        0.0952
     81 H           0.3806   -2.1515    3.0298 H       1  LIG1        0.0266
     82 H          -0.1298   -0.4866    2.8035 H       1  LIG1        0.0266
     83 H           0.7451    3.9177    0.2018 H       1  LIG1        0.0374
     84 H           1.9992    4.2217   -0.9758 H       1  LIG1        0.0374
     85 H          -0.2794   -0.9034    5.1349 H       1  LIG1        0.0263
     86 H           1.1258    0.1387    4.9304 H       1  LIG1        0.0263
     87 H           1.8748    5.9964    1.4691 H       1  LIG1        0.0818
     88 H           1.2139   -2.9107    5.2793 H       1  LIG1        0.0230
     89 H           1.5440   -1.7149    6.5430 H       1  LIG1        0.0230
     90 H           2.6334   -1.8528    5.1606 H       1  LIG1        0.0230
     91 H           4.1122    1.3528    0.7312 H       1  LIG1        0.0624
     92 H           5.8143    4.4359    4.1940 H       1  LIG1        0.0638
     93 H           5.9766    0.7063    2.1086 H       1  LIG1        0.0618
     94 H           6.8578    2.2468    3.8332 H       1  LIG1        0.0618
     95 H           4.9892    6.9721    6.3600 H       1  LIG1        0.0661
     96 H           3.4940    7.6842    5.7314 H       1  LIG1        0.0661
     97 H           5.0875    8.1606    5.0430 H       1  LIG1        0.0661
@<TRIPOS>BOND
     1     1    21    2
     2     2    24    2
     3     3    30    2
     4     4    34   ar
     5     5    34   ar
     6     6    44    1
     7     6    46    1
     8     7    44    2
     9     8    13    1
    10     8    14    1
    11     9    21   am
    12    10    24   am
    13    10    30   am
    14    12    39   ar
    15    12    38   ar
    16    12    44   am
    17    13    15    1
    18    13    22    1
    19    14    16    1
    20    14    23    1
    21    15    17    1
    22    16    17    1
    23    18     9    1
    24    18    24    1
    25    18    20    1
    26    19    20    1
    27    19    27    1
    28    19    26    1
    29    19    25    1
    30    21     8   am
    31    28    34    1
    32    28    29    1
    33    28    10    1
    34    29    32    1
    35    31    33    1
    36    31    11    1
    37    31    30    1
    38    32    36    1
    39    33    35    1
    40    35    38   ar
    41    35    37   ar
    42    36    40    1
    43    37    39   ar
    44    37    41   ar
    45    39    42   ar
    46    41    43   ar
    47    42    45   ar
    48    43    45   ar
    49     9    47    1
    50    11    48    1
    51    11    49    1
    52    11    50    1
    53    13    51    1
    54    14    52    1
    55    15    53    1
    56    15    54    1
    57    16    55    1
    58    16    56    1
    59    17    57    1
    60    17    58    1
    61    18    59    1
    62    20    60    1
    63    20    61    1
    64    22    62    1
    65    22    63    1
    66    22    64    1
    67    23    65    1
    68    23    66    1
    69    23    67    1
    70    25    68    1
    71    25    69    1
    72    25    70    1
    73    26    71    1
    74    26    72    1
    75    26    73    1
    76    27    74    1
    77    27    75    1
    78    27    76    1
    79    28    77    1
    80    29    78    1
    81    29    79    1
    82    31    80    1
    83    32    81    1
    84    32    82    1
    85    33    83    1
    86    33    84    1
    87    36    85    1
    88    36    86    1
    89    38    87    1
    90    40    88    1
    91    40    89    1
    92    40    90    1
    93    41    91    1
    94    42    92    1
    95    43    93    1
    96    45    94    1
    97    46    95    1
    98    46    96    1
    99    46    97    1
