@<TRIPOS>MOLECULE
*****
 48 50 0 0 0
SMALL
GASTEIGER

@<TRIPOS>ATOM
      1 C           3.6831    0.3565   -6.7952 C.ar    1  LIG1       -0.0615
      2 C           4.6167   -0.6735   -6.8333 C.ar    1  LIG1       -0.0617
      3 C           4.7997   -1.4781   -5.7131 C.ar    1  LIG1       -0.0615
      4 C           4.0406   -1.2613   -4.5582 C.ar    1  LIG1       -0.0576
      5 C           3.0760   -0.2379   -4.4972 C.ar    1  LIG1       -0.0332
      6 C           2.9297    0.5771   -5.6386 C.ar    1  LIG1       -0.0576
      7 C           0.3231    1.7908   -3.4960 C.ar    1  LIG1       -0.0576
      8 C          -0.9740    2.1285   -3.8975 C.ar    1  LIG1       -0.0615
      9 C          -1.8250    1.1586   -4.4153 C.ar    1  LIG1       -0.0617
     10 C          -1.3759   -0.1510   -4.5397 C.ar    1  LIG1       -0.0615
     11 C          -0.0784   -0.4874   -4.1410 C.ar    1  LIG1       -0.0576
     12 N           5.3316    2.1493   -3.5959 N.ar    1  LIG1       -0.2002
     13 C           5.4386    1.4200   -2.4733 C.ar    1  LIG1        0.3190
     14 N           6.5825    1.2191   -1.7973 N.ar    1  LIG1       -0.2002
     15 C           7.6739    1.8554   -2.2565 C.ar    1  LIG1        0.0453
     16 C           7.6538    2.6451   -3.3912 C.ar    1  LIG1       -0.0193
     17 C           6.4393    2.7684   -4.0338 C.ar    1  LIG1        0.0453
     18 C           6.3055    3.5540   -5.3000 C.3     1  LIG1       -0.0221
     19 C           8.9473    1.6650   -1.4919 C.3     1  LIG1       -0.0221
     20 O           4.3813    0.6496   -2.0567 O.3     1  LIG1       -0.4519
     21 C           3.0659    1.1658   -2.4057 C.3     1  LIG1        0.1554
     22 C           2.2562    0.0627   -3.1858 C.3     1  LIG1        0.0601
     23 C           2.4359    1.6720   -1.0772 C.2     1  LIG1        0.0833
     24 O           2.3166    2.9340   -0.9929 O.co2   1  LIG1       -0.5460
     25 O           2.1139    0.8023   -0.2177 O.co2   1  LIG1       -0.5460
     26 C           0.8004    0.4722   -3.5921 C.ar    1  LIG1       -0.0332
     27 C           2.1446   -1.2278   -2.3146 C.3     1  LIG1       -0.0477
     28 H           3.5471    1.0051   -7.6548 H       1  LIG1        0.0618
     29 H           5.2140   -0.8358   -7.7249 H       1  LIG1        0.0618
     30 H           5.5481   -2.2643   -5.7218 H       1  LIG1        0.0618
     31 H           4.2466   -1.8809   -3.6894 H       1  LIG1        0.0621
     32 H           2.2351    1.4138   -5.6295 H       1  LIG1        0.0621
     33 H           0.9443    2.5938   -3.1071 H       1  LIG1        0.0621
     34 H          -1.3103    3.1558   -3.7935 H       1  LIG1        0.0618
     35 H          -2.8328    1.4241   -4.7179 H       1  LIG1        0.0618
     36 H          -2.0306   -0.9167   -4.9461 H       1  LIG1        0.0618
     37 H           0.2477   -1.5163   -4.2723 H       1  LIG1        0.0621
     38 H           8.5447    3.1372   -3.7551 H       1  LIG1        0.0653
     39 H           7.1374    4.2525   -5.4309 H       1  LIG1        0.0293
     40 H           5.3779    4.1368   -5.2864 H       1  LIG1        0.0293
     41 H           6.2807    2.8732   -6.1576 H       1  LIG1        0.0293
     42 H           8.7852    1.0312   -0.6141 H       1  LIG1        0.0293
     43 H           9.3300    2.6311   -1.1474 H       1  LIG1        0.0293
     44 H           9.7003    1.1849   -2.1248 H       1  LIG1        0.0293
     45 H           3.1414    2.0493   -3.0539 H       1  LIG1        0.0810
     46 H           3.0799   -1.4643   -1.7959 H       1  LIG1        0.0243
     47 H           1.8899   -2.1116   -2.9116 H       1  LIG1        0.0243
     48 H           1.3638   -1.1364   -1.5518 H       1  LIG1        0.0243
@<TRIPOS>BOND
     1     1     2   ar
     2     2     3   ar
     3     3     4   ar
     4     4     5   ar
     5     5     6   ar
     6     5    22    1
     7     6     1   ar
     8     7     8   ar
     9     8     9   ar
    10     9    10   ar
    11    10    11   ar
    12    11    26   ar
    13    12    13   ar
    14    13    14   ar
    15    14    15   ar
    16    15    16   ar
    17    15    19    1
    18    16    17   ar
    19    17    12   ar
    20    17    18    1
    21    20    21    1
    22    20    13    1
    23    21    23    1
    24    21    22    1
    25    22    27    1
    26    22    26    1
    27    23    25   ar
    28    23    24   ar
    29    26     7   ar
    30     1    28    1
    31     2    29    1
    32     3    30    1
    33     4    31    1
    34     6    32    1
    35     7    33    1
    36     8    34    1
    37     9    35    1
    38    10    36    1
    39    11    37    1
    40    16    38    1
    41    18    39    1
    42    18    40    1
    43    18    41    1
    44    19    42    1
    45    19    43    1
    46    19    44    1
    47    21    45    1
    48    27    46    1
    49    27    47    1
    50    27    48    1
@<TRIPOS>MOLECULE
*****
 48 50 0 0 0
SMALL
GASTEIGER

@<TRIPOS>ATOM
      1 C           4.8208   -1.3998   -5.7233 C.ar    1  LIG1       -0.0615
      2 C           4.6532   -0.5633   -6.8217 C.ar    1  LIG1       -0.0617
      3 C           3.7213    0.4674   -6.7652 C.ar    1  LIG1       -0.0615
      4 C           2.9538    0.6566   -5.6121 C.ar    1  LIG1       -0.0576
      5 C           3.0842   -0.1916   -4.4937 C.ar    1  LIG1       -0.0332
      6 C           4.0476   -1.2151   -4.5724 C.ar    1  LIG1       -0.0576
      7 C           0.3035    1.7880   -3.4868 C.ar    1  LIG1       -0.0576
      8 C          -0.9944    2.1197   -3.8919 C.ar    1  LIG1       -0.0615
      9 C          -1.8340    1.1487   -4.4260 C.ar    1  LIG1       -0.0617
     10 C          -1.3722   -0.1553   -4.5630 C.ar    1  LIG1       -0.0615
     11 C          -0.0737   -0.4845   -4.1623 C.ar    1  LIG1       -0.0576
     12 N           5.2694    2.5042   -3.2168 N.ar    1  LIG1       -0.2002
     13 C           5.4425    1.3861   -2.4971 C.ar    1  LIG1        0.3190
     14 N           6.6360    0.8386   -2.2089 N.ar    1  LIG1       -0.2002
     15 C           7.7241    1.4861   -2.6620 C.ar    1  LIG1        0.0453
     16 C           7.6421    2.6524   -3.3979 C.ar    1  LIG1       -0.0193
     17 C           6.3738    3.1295   -3.6569 C.ar    1  LIG1        0.0453
     18 C           6.1560    4.3849   -4.4419 C.3     1  LIG1       -0.0221
     19 C           9.0584    0.8846   -2.3445 C.3     1  LIG1       -0.0221
     20 O           4.3674    0.6570   -2.0549 O.3     1  LIG1       -0.4519
     21 C           3.0466    1.1712   -2.3810 C.3     1  LIG1        0.1554
     22 C           2.2494    0.0747   -3.1843 C.3     1  LIG1        0.0601
     23 C           2.4091    1.6265   -1.0371 C.2     1  LIG1        0.0833
     24 O           2.1808    2.8719   -0.9468 O.co2   1  LIG1       -0.5460
     25 O           2.1914    0.7322   -0.1687 O.co2   1  LIG1       -0.5460
     26 C           0.7933    0.4748   -3.5957 C.ar    1  LIG1       -0.0332
     27 C           2.1443   -1.2296   -2.3339 C.3     1  LIG1       -0.0477
     28 H           5.5680   -2.1872   -5.7446 H       1  LIG1        0.0618
     29 H           5.2605   -0.7012   -7.7100 H       1  LIG1        0.0618
     30 H           3.5961    1.1401   -7.6084 H       1  LIG1        0.0618
     31 H           2.2587    1.4930   -5.5882 H       1  LIG1        0.0621
     32 H           4.2433   -1.8593   -3.7186 H       1  LIG1        0.0621
     33 H           0.9154    2.5925   -3.0836 H       1  LIG1        0.0621
     34 H          -1.3401    3.1437   -3.7765 H       1  LIG1        0.0618
     35 H          -2.8423    1.4092   -4.7299 H       1  LIG1        0.0618
     36 H          -2.0177   -0.9210   -4.9817 H       1  LIG1        0.0618
     37 H           0.2616   -1.5086   -4.3039 H       1  LIG1        0.0621
     38 H           8.5271    3.1615   -3.7540 H       1  LIG1        0.0653
     39 H           7.0958    4.7877   -4.8320 H       1  LIG1        0.0293
     40 H           5.6934    5.1455   -3.8056 H       1  LIG1        0.0293
     41 H           5.4954    4.1831   -5.2909 H       1  LIG1        0.0293
     42 H           8.9452   -0.0226   -1.7421 H       1  LIG1        0.0293
     43 H           9.6699    1.5944   -1.7789 H       1  LIG1        0.0293
     44 H           9.5806    0.6163   -3.2683 H       1  LIG1        0.0293
     45 H           3.1044    2.0655   -3.0131 H       1  LIG1        0.0810
     46 H           3.0806   -1.4698   -1.8177 H       1  LIG1        0.0243
     47 H           1.8949   -2.1063   -2.9442 H       1  LIG1        0.0243
     48 H           1.3623   -1.1527   -1.5697 H       1  LIG1        0.0243
@<TRIPOS>BOND
     1     1     2   ar
     2     2     3   ar
     3     3     4   ar
     4     4     5   ar
     5     5     6   ar
     6     5    22    1
     7     6     1   ar
     8     7     8   ar
     9     8     9   ar
    10     9    10   ar
    11    10    11   ar
    12    11    26   ar
    13    12    13   ar
    14    13    14   ar
    15    14    15   ar
    16    15    16   ar
    17    15    19    1
    18    16    17   ar
    19    17    12   ar
    20    17    18    1
    21    20    21    1
    22    20    13    1
    23    21    23    1
    24    21    22    1
    25    22    27    1
    26    22    26    1
    27    23    25   ar
    28    23    24   ar
    29    26     7   ar
    30     1    28    1
    31     2    29    1
    32     3    30    1
    33     4    31    1
    34     6    32    1
    35     7    33    1
    36     8    34    1
    37     9    35    1
    38    10    36    1
    39    11    37    1
    40    16    38    1
    41    18    39    1
    42    18    40    1
    43    18    41    1
    44    19    42    1
    45    19    43    1
    46    19    44    1
    47    21    45    1
    48    27    46    1
    49    27    47    1
    50    27    48    1
@<TRIPOS>MOLECULE
*****
 48 50 0 0 0
SMALL
GASTEIGER

@<TRIPOS>ATOM
      1 C           3.9197    0.6102   -6.7433 C.ar    1  LIG1       -0.0615
      2 C           4.7715   -0.4862   -6.8192 C.ar    1  LIG1       -0.0617
      3 C           4.8406   -1.3802   -5.7550 C.ar    1  LIG1       -0.0615
      4 C           4.0441   -1.1880   -4.6211 C.ar    1  LIG1       -0.0576
      5 C           3.1533   -0.1038   -4.5314 C.ar    1  LIG1       -0.0332
      6 C           3.1276    0.8044   -5.6092 C.ar    1  LIG1       -0.0576
      7 C           0.1066    1.6339   -3.1970 C.ar    1  LIG1       -0.0576
      8 C          -1.1983    1.9361   -3.6049 C.ar    1  LIG1       -0.0615
      9 C          -1.8466    1.1393   -4.5421 C.ar    1  LIG1       -0.0617
     10 C          -1.1891    0.0381   -5.0757 C.ar    1  LIG1       -0.0615
     11 C           0.1166   -0.2568   -4.6726 C.ar    1  LIG1       -0.0576
     12 N           2.1908    1.1636    1.2107 N.ar    1  LIG1       -0.2002
     13 C           2.9363    0.9767    0.1094 C.ar    1  LIG1        0.3190
     14 N           4.1688    0.4468    0.1040 N.ar    1  LIG1       -0.2002
     15 C           4.7128    0.1511    1.2973 C.ar    1  LIG1        0.0453
     16 C           4.0317    0.3289    2.4837 C.ar    1  LIG1       -0.0193
     17 C           2.7547    0.8439    2.3907 C.ar    1  LIG1        0.0453
     18 C           1.9100    1.0487    3.6086 C.3     1  LIG1       -0.0221
     19 C           6.1039   -0.4041    1.2919 C.3     1  LIG1       -0.0221
     20 O           2.2768    1.2289   -1.0669 O.3     1  LIG1       -0.4519
     21 C           3.0344    1.0845   -2.2993 C.3     1  LIG1        0.1554
     22 C           2.2481    0.1445   -3.2873 C.3     1  LIG1        0.0601
     23 C           3.4789    2.4891   -2.7939 C.2     1  LIG1        0.0833
     24 O           2.6027    3.4011   -2.8221 O.co2   1  LIG1       -0.5460
     25 O           4.7083    2.5930   -3.0938 O.co2   1  LIG1       -0.5460
     26 C           0.8026    0.5393   -3.7250 C.ar    1  LIG1       -0.0332
     27 C           2.0177   -1.1925   -2.4967 C.3     1  LIG1       -0.0477
     28 H           3.8828    1.3357   -7.5500 H       1  LIG1        0.0618
     29 H           5.4013   -0.6257   -7.6924 H       1  LIG1        0.0618
     30 H           5.5299   -2.2186   -5.7930 H       1  LIG1        0.0618
     31 H           4.1549   -1.8900   -3.8012 H       1  LIG1        0.0621
     32 H           2.4975    1.6932   -5.5582 H       1  LIG1        0.0621
     33 H           0.5622    2.2901   -2.4599 H       1  LIG1        0.0621
     34 H          -1.6928    2.8065   -3.1840 H       1  LIG1        0.0618
     35 H          -2.8566    1.3824   -4.8557 H       1  LIG1        0.0618
     36 H          -1.6821   -0.5910   -5.8101 H       1  LIG1        0.0618
     37 H           0.6112   -1.1201   -5.1134 H       1  LIG1        0.0621
     38 H           4.4781    0.0744    3.4357 H       1  LIG1        0.0653
     39 H           2.4649    0.8369    4.5291 H       1  LIG1        0.0293
     40 H           1.0403    0.3842    3.5735 H       1  LIG1        0.0293
     41 H           1.5619    2.0859    3.6537 H       1  LIG1        0.0293
     42 H           6.5049   -0.4445    0.2739 H       1  LIG1        0.0293
     43 H           6.1065   -1.4195    1.6998 H       1  LIG1        0.0293
     44 H           6.7662    0.2268    1.8929 H       1  LIG1        0.0293
     45 H           3.9825    0.5627   -2.1062 H       1  LIG1        0.0810
     46 H           2.9320   -1.5363   -1.9977 H       1  LIG1        0.0243
     47 H           1.6812   -2.0096   -3.1466 H       1  LIG1        0.0243
     48 H           1.2573   -1.0725   -1.7140 H       1  LIG1        0.0243
@<TRIPOS>BOND
     1     1     2   ar
     2     2     3   ar
     3     3     4   ar
     4     4     5   ar
     5     5     6   ar
     6     5    22    1
     7     6     1   ar
     8     7     8   ar
     9     8     9   ar
    10     9    10   ar
    11    10    11   ar
    12    11    26   ar
    13    12    13   ar
    14    13    14   ar
    15    14    15   ar
    16    15    16   ar
    17    15    19    1
    18    16    17   ar
    19    17    12   ar
    20    17    18    1
    21    20    21    1
    22    20    13    1
    23    21    23    1
    24    21    22    1
    25    22    27    1
    26    22    26    1
    27    23    25   ar
    28    23    24   ar
    29    26     7   ar
    30     1    28    1
    31     2    29    1
    32     3    30    1
    33     4    31    1
    34     6    32    1
    35     7    33    1
    36     8    34    1
    37     9    35    1
    38    10    36    1
    39    11    37    1
    40    16    38    1
    41    18    39    1
    42    18    40    1
    43    18    41    1
    44    19    42    1
    45    19    43    1
    46    19    44    1
    47    21    45    1
    48    27    46    1
    49    27    47    1
    50    27    48    1
@<TRIPOS>MOLECULE
*****
 48 50 0 0 0
SMALL
GASTEIGER

@<TRIPOS>ATOM
      1 C           4.2690   -1.6901   -6.0828 C.ar    1  LIG1       -0.0615
      2 C           4.6281   -0.6071   -6.8770 C.ar    1  LIG1       -0.0617
      3 C           4.2501    0.6732   -6.4951 C.ar    1  LIG1       -0.0615
      4 C           3.5146    0.8665   -5.3217 C.ar    1  LIG1       -0.0576
      5 C           3.1470   -0.2095   -4.4836 C.ar    1  LIG1       -0.0332
      6 C           3.5393   -1.4940   -4.9027 C.ar    1  LIG1       -0.0576
      7 C           0.5665    1.8038   -3.8979 C.ar    1  LIG1       -0.0576
      8 C          -0.7189    2.1814   -4.3027 C.ar    1  LIG1       -0.0615
      9 C          -1.7297    1.2342   -4.3963 C.ar    1  LIG1       -0.0617
     10 C          -1.4511   -0.0925   -4.0907 C.ar    1  LIG1       -0.0615
     11 C          -0.1605   -0.4704   -3.6991 C.ar    1  LIG1       -0.0576
     12 N           6.5281    0.5074   -2.6133 N.ar    1  LIG1       -0.2002
     13 C           5.4611    1.2866   -2.3673 C.ar    1  LIG1        0.3190
     14 N           5.4228    2.6180   -2.5339 N.ar    1  LIG1       -0.2002
     15 C           6.5319    3.2004   -3.0149 C.ar    1  LIG1        0.0453
     16 C           7.6687    2.4811   -3.3277 C.ar    1  LIG1       -0.0193
     17 C           7.6205    1.1192   -3.1012 C.ar    1  LIG1        0.0453
     18 C           8.7871    0.2393   -3.4265 C.3     1  LIG1       -0.0221
     19 C           6.4939    4.6861   -3.2045 C.3     1  LIG1       -0.0221
     20 O           4.3690    0.6252   -1.8712 O.3     1  LIG1       -0.4519
     21 C           3.0899    1.1594   -2.3149 C.3     1  LIG1        0.1554
     22 C           2.3306    0.0530   -3.1570 C.3     1  LIG1        0.0601
     23 C           2.3208    1.6586   -1.0590 C.2     1  LIG1        0.0833
     24 O           2.2190    0.8546   -0.0872 O.co2   1  LIG1       -0.5460
     25 O           1.8842    2.8488   -1.1373 O.co2   1  LIG1       -0.5460
     26 C           0.8826    0.4698   -3.5777 C.ar    1  LIG1       -0.0332
     27 C           2.2821   -1.2420   -2.2796 C.3     1  LIG1       -0.0477
     28 H           4.5612   -2.6961   -6.3707 H       1  LIG1        0.0618
     29 H           5.2009   -0.7606   -7.7858 H       1  LIG1        0.0618
     30 H           4.5261    1.5305   -7.1015 H       1  LIG1        0.0618
     31 H           3.2417    1.8864   -5.0637 H       1  LIG1        0.0621
     32 H           3.3029   -2.3770   -4.3185 H       1  LIG1        0.0621
     33 H           1.3114    2.5913   -3.8098 H       1  LIG1        0.0621
     34 H          -0.9226    3.2259   -4.5206 H       1  LIG1        0.0618
     35 H          -2.7304    1.5307   -4.6899 H       1  LIG1        0.0618
     36 H          -2.2366   -0.8406   -4.1443 H       1  LIG1        0.0618
     37 H          -0.0008   -1.5200   -3.4760 H       1  LIG1        0.0621
     38 H           8.5513    2.9636   -3.7244 H       1  LIG1        0.0653
     39 H           9.6890    0.8232   -3.6354 H       1  LIG1        0.0293
     40 H           8.5571   -0.3698   -4.3065 H       1  LIG1        0.0293
     41 H           9.0035   -0.4241   -2.5832 H       1  LIG1        0.0293
     42 H           5.5187    5.0920   -2.9157 H       1  LIG1        0.0293
     43 H           6.6700    4.9391   -4.2544 H       1  LIG1        0.0293
     44 H           7.2585    5.1664   -2.5857 H       1  LIG1        0.0293
     45 H           3.2339    2.0504   -2.9342 H       1  LIG1        0.0810
     46 H           3.2769   -1.5417   -1.9321 H       1  LIG1        0.0243
     47 H           1.8771   -2.1091   -2.8110 H       1  LIG1        0.0243
     48 H           1.6426   -1.1135   -1.4012 H       1  LIG1        0.0243
@<TRIPOS>BOND
     1     1     2   ar
     2     2     3   ar
     3     3     4   ar
     4     4     5   ar
     5     5     6   ar
     6     5    22    1
     7     6     1   ar
     8     7     8   ar
     9     8     9   ar
    10     9    10   ar
    11    10    11   ar
    12    11    26   ar
    13    12    13   ar
    14    13    14   ar
    15    14    15   ar
    16    15    16   ar
    17    15    19    1
    18    16    17   ar
    19    17    12   ar
    20    17    18    1
    21    20    21    1
    22    20    13    1
    23    21    23    1
    24    21    22    1
    25    22    27    1
    26    22    26    1
    27    23    25   ar
    28    23    24   ar
    29    26     7   ar
    30     1    28    1
    31     2    29    1
    32     3    30    1
    33     4    31    1
    34     6    32    1
    35     7    33    1
    36     8    34    1
    37     9    35    1
    38    10    36    1
    39    11    37    1
    40    16    38    1
    41    18    39    1
    42    18    40    1
    43    18    41    1
    44    19    42    1
    45    19    43    1
    46    19    44    1
    47    21    45    1
    48    27    46    1
    49    27    47    1
    50    27    48    1
@<TRIPOS>MOLECULE
*****
 48 50 0 0 0
SMALL
GASTEIGER

@<TRIPOS>ATOM
      1 C           3.7516    0.4581   -6.7676 C.ar    1  LIG1       -0.0615
      2 C           4.6700   -0.5842   -6.8246 C.ar    1  LIG1       -0.0617
      3 C           4.8207   -1.4283   -5.7291 C.ar    1  LIG1       -0.0615
      4 C           4.0446   -1.2394   -4.5810 C.ar    1  LIG1       -0.0576
      5 C           3.0960   -0.2032   -4.5012 C.ar    1  LIG1       -0.0332
      6 C           2.9819    0.6513   -5.6166 C.ar    1  LIG1       -0.0576
      7 C           0.3435    1.8064   -3.5303 C.ar    1  LIG1       -0.0576
      8 C          -0.9493    2.1515   -3.9392 C.ar    1  LIG1       -0.0615
      9 C          -1.8064    1.1843   -4.4515 C.ar    1  LIG1       -0.0617
     10 C          -1.3661   -0.1292   -4.5652 C.ar    1  LIG1       -0.0615
     11 C          -0.0719   -0.4716   -4.1593 C.ar    1  LIG1       -0.0576
     12 N           5.3437    2.6743   -2.6004 N.ar    1  LIG1       -0.2002
     13 C           5.4492    1.3440   -2.4766 C.ar    1  LIG1        0.3190
     14 N           6.5627    0.6315   -2.7183 N.ar    1  LIG1       -0.2002
     15 C           7.6335    1.3193   -3.1491 C.ar    1  LIG1        0.0453
     16 C           7.6184    2.6908   -3.3162 C.ar    1  LIG1       -0.0193
     17 C           6.4338    3.3357   -3.0234 C.ar    1  LIG1        0.0453
     18 C           6.3013    4.8213   -3.1473 C.3     1  LIG1       -0.0221
     19 C           8.8688    0.5320   -3.4619 C.3     1  LIG1       -0.0221
     20 O           4.3790    0.6019   -2.0468 O.3     1  LIG1       -0.4519
     21 C           3.0724    1.1521   -2.3829 C.3     1  LIG1        0.1554
     22 C           2.2606    0.0685   -3.1929 C.3     1  LIG1        0.0601
     23 C           2.4197    1.6097   -1.0465 C.2     1  LIG1        0.0833
     24 O           2.1050    2.8392   -0.9929 O.co2   1  LIG1       -0.5460
     25 O           2.2687    0.7289   -0.1509 O.co2   1  LIG1       -0.5460
     26 C           0.8111    0.4837   -3.6111 C.ar    1  LIG1       -0.0332
     27 C           2.1389   -1.2340   -2.3413 C.3     1  LIG1       -0.0477
     28 H           3.6382    1.1355   -7.6082 H       1  LIG1        0.0618
     29 H           5.2799   -0.7259   -7.7106 H       1  LIG1        0.0618
     30 H           5.5599   -2.2243   -5.7500 H       1  LIG1        0.0618
     31 H           4.2310   -1.8881   -3.7297 H       1  LIG1        0.0621
     32 H           2.2953    1.4960   -5.5936 H       1  LIG1        0.0621
     33 H           0.9705    2.6073   -3.1459 H       1  LIG1        0.0621
     34 H          -1.2778    3.1823   -3.8427 H       1  LIG1        0.0618
     35 H          -2.8112    1.4547   -4.7583 H       1  LIG1        0.0618
     36 H          -2.0246   -0.8930   -4.9679 H       1  LIG1        0.0618
     37 H           0.2455   -1.5044   -4.2838 H       1  LIG1        0.0621
     38 H           8.4907    3.2298   -3.6602 H       1  LIG1        0.0653
     39 H           7.1888    5.2704   -3.6050 H       1  LIG1        0.0293
     40 H           6.1618    5.2662   -2.1569 H       1  LIG1        0.0293
     41 H           5.4371    5.0688   -3.7724 H       1  LIG1        0.0293
     42 H           8.7184   -0.5318   -3.2490 H       1  LIG1        0.0293
     43 H           9.7089    0.8847   -2.8559 H       1  LIG1        0.0293
     44 H           9.1217    0.6333   -4.5220 H       1  LIG1        0.0293
     45 H           3.1703    2.0387   -3.0246 H       1  LIG1        0.0810
     46 H           3.0726   -1.4896   -1.8280 H       1  LIG1        0.0243
     47 H           1.8749   -2.1075   -2.9494 H       1  LIG1        0.0243
     48 H           1.3618   -1.1423   -1.5733 H       1  LIG1        0.0243
@<TRIPOS>BOND
     1     1     2   ar
     2     2     3   ar
     3     3     4   ar
     4     4     5   ar
     5     5     6   ar
     6     5    22    1
     7     6     1   ar
     8     7     8   ar
     9     8     9   ar
    10     9    10   ar
    11    10    11   ar
    12    11    26   ar
    13    12    13   ar
    14    13    14   ar
    15    14    15   ar
    16    15    16   ar
    17    15    19    1
    18    16    17   ar
    19    17    12   ar
    20    17    18    1
    21    20    21    1
    22    20    13    1
    23    21    23    1
    24    21    22    1
    25    22    27    1
    26    22    26    1
    27    23    25   ar
    28    23    24   ar
    29    26     7   ar
    30     1    28    1
    31     2    29    1
    32     3    30    1
    33     4    31    1
    34     6    32    1
    35     7    33    1
    36     8    34    1
    37     9    35    1
    38    10    36    1
    39    11    37    1
    40    16    38    1
    41    18    39    1
    42    18    40    1
    43    18    41    1
    44    19    42    1
    45    19    43    1
    46    19    44    1
    47    21    45    1
    48    27    46    1
    49    27    47    1
    50    27    48    1
@<TRIPOS>MOLECULE
*****
 48 50 0 0 0
SMALL
GASTEIGER

@<TRIPOS>ATOM
      1 C           3.9635    0.5889   -6.6158 C.ar    1  LIG1       -0.0615
      2 C           4.6021   -0.6264   -6.8346 C.ar    1  LIG1       -0.0617
      3 C           4.4950   -1.6404   -5.8872 C.ar    1  LIG1       -0.0615
      4 C           3.7496   -1.4424   -4.7194 C.ar    1  LIG1       -0.0576
      5 C           3.0840   -0.2283   -4.4784 C.ar    1  LIG1       -0.0332
      6 C           3.2130    0.7837   -5.4538 C.ar    1  LIG1       -0.0576
      7 C           0.3536    1.8029   -3.5205 C.ar    1  LIG1       -0.0576
      8 C          -0.9276    2.1562   -3.9597 C.ar    1  LIG1       -0.0615
      9 C          -1.7731    1.1974   -4.5063 C.ar    1  LIG1       -0.0617
     10 C          -1.3337   -0.1157   -4.6236 C.ar    1  LIG1       -0.0615
     11 C          -0.0507   -0.4656   -4.1908 C.ar    1  LIG1       -0.0576
     12 N           5.2744    2.5133   -3.1711 N.ar    1  LIG1       -0.2002
     13 C           5.4649    1.3703   -2.4943 C.ar    1  LIG1        0.3190
     14 N           6.6667    0.8272   -2.2353 N.ar    1  LIG1       -0.2002
     15 C           7.7440    1.5016   -2.6756 C.ar    1  LIG1        0.0453
     16 C           7.6436    2.6905   -3.3721 C.ar    1  LIG1       -0.0193
     17 C           6.3686    3.1663   -3.5973 C.ar    1  LIG1        0.0453
     18 C           6.1306    4.4383   -4.3488 C.3     1  LIG1       -0.0221
     19 C           9.0871    0.9023   -2.3926 C.3     1  LIG1       -0.0221
     20 O           4.3994    0.6121   -2.0767 O.3     1  LIG1       -0.4519
     21 C           3.0722    1.1386   -2.3575 C.3     1  LIG1        0.1554
     22 C           2.2593    0.0557   -3.1682 C.3     1  LIG1        0.0601
     23 C           2.4603    1.5730   -0.9945 C.2     1  LIG1        0.0833
     24 O           2.3841    0.6937   -0.0885 O.co2   1  LIG1       -0.5460
     25 O           2.1136    2.7927   -0.9262 O.co2   1  LIG1       -0.5460
     26 C           0.8211    0.4812   -3.6103 C.ar    1  LIG1       -0.0332
     27 C           2.1190   -1.2272   -2.2925 C.3     1  LIG1       -0.0477
     28 H           4.0541    1.3954   -7.3367 H       1  LIG1        0.0618
     29 H           5.1924   -0.7779   -7.7325 H       1  LIG1        0.0618
     30 H           5.0054   -2.5865   -6.0432 H       1  LIG1        0.0618
     31 H           3.7248   -2.2495   -3.9937 H       1  LIG1        0.0621
     32 H           2.7410    1.7520   -5.2982 H       1  LIG1        0.0621
     33 H           0.9702    2.5970   -3.1059 H       1  LIG1        0.0621
     34 H          -1.2556    3.1871   -3.8616 H       1  LIG1        0.0618
     35 H          -2.7683    1.4747   -4.8379 H       1  LIG1        0.0618
     36 H          -1.9830   -0.8729   -5.0522 H       1  LIG1        0.0618
     37 H           0.2685   -1.4961   -4.3222 H       1  LIG1        0.0621
     38 H           8.5204    3.2177   -3.7225 H       1  LIG1        0.0653
     39 H           7.0694    4.9244   -4.6324 H       1  LIG1        0.0293
     40 H           5.5591    5.1363   -3.7290 H       1  LIG1        0.0293
     41 H           5.5644    4.2292   -5.2618 H       1  LIG1        0.0293
     42 H           8.9898   -0.0173   -1.8063 H       1  LIG1        0.0293
     43 H           9.7035    1.6047   -1.8231 H       1  LIG1        0.0293
     44 H           9.5953    0.6563   -3.3302 H       1  LIG1        0.0293
     45 H           3.1221    2.0479   -2.9664 H       1  LIG1        0.0810
     46 H           3.0710   -1.5196   -1.8351 H       1  LIG1        0.0243
     47 H           1.7697   -2.0961   -2.8615 H       1  LIG1        0.0243
     48 H           1.3897   -1.0861   -1.4872 H       1  LIG1        0.0243
@<TRIPOS>BOND
     1     1     2   ar
     2     2     3   ar
     3     3     4   ar
     4     4     5   ar
     5     5     6   ar
     6     5    22    1
     7     6     1   ar
     8     7     8   ar
     9     8     9   ar
    10     9    10   ar
    11    10    11   ar
    12    11    26   ar
    13    12    13   ar
    14    13    14   ar
    15    14    15   ar
    16    15    16   ar
    17    15    19    1
    18    16    17   ar
    19    17    12   ar
    20    17    18    1
    21    20    21    1
    22    20    13    1
    23    21    23    1
    24    21    22    1
    25    22    27    1
    26    22    26    1
    27    23    25   ar
    28    23    24   ar
    29    26     7   ar
    30     1    28    1
    31     2    29    1
    32     3    30    1
    33     4    31    1
    34     6    32    1
    35     7    33    1
    36     8    34    1
    37     9    35    1
    38    10    36    1
    39    11    37    1
    40    16    38    1
    41    18    39    1
    42    18    40    1
    43    18    41    1
    44    19    42    1
    45    19    43    1
    46    19    44    1
    47    21    45    1
    48    27    46    1
    49    27    47    1
    50    27    48    1
@<TRIPOS>MOLECULE
*****
 48 50 0 0 0
SMALL
GASTEIGER

@<TRIPOS>ATOM
      1 C           4.2927   -1.5545   -6.1301 C.ar    1  LIG1       -0.0615
      2 C           4.6280   -0.4428   -6.8971 C.ar    1  LIG1       -0.0617
      3 C           4.2083    0.8204   -6.4962 C.ar    1  LIG1       -0.0615
      4 C           3.4473    0.9683   -5.3343 C.ar    1  LIG1       -0.0576
      5 C           3.1074   -0.1398   -4.5279 C.ar    1  LIG1       -0.0332
      6 C           3.5474   -1.4047   -4.9551 C.ar    1  LIG1       -0.0576
      7 C           0.3521    1.8508   -3.3994 C.ar    1  LIG1       -0.0576
      8 C          -0.9180    2.2461   -3.8366 C.ar    1  LIG1       -0.0615
      9 C          -1.7142    1.3751   -4.5729 C.ar    1  LIG1       -0.0617
     10 C          -1.2374    0.1074   -4.8813 C.ar    1  LIG1       -0.0615
     11 C           0.0297   -0.2863   -4.4408 C.ar    1  LIG1       -0.0576
     12 N           5.3395    2.6008   -2.5607 N.ar    1  LIG1       -0.2002
     13 C           5.4646    1.2692   -2.4543 C.ar    1  LIG1        0.3190
     14 N           6.5906    0.5819   -2.7106 N.ar    1  LIG1       -0.2002
     15 C           7.6507    1.2930   -3.1272 C.ar    1  LIG1        0.0453
     16 C           7.6133    2.6685   -3.2721 C.ar    1  LIG1       -0.0193
     17 C           6.4173    3.2877   -2.9688 C.ar    1  LIG1        0.0453
     18 C           6.2588    4.7720   -3.0779 C.3     1  LIG1       -0.0221
     19 C           8.8979    0.5317   -3.4540 C.3     1  LIG1       -0.0221
     20 O           4.4009    0.4963   -2.0638 O.3     1  LIG1       -0.4519
     21 C           3.0838    1.0769   -2.2984 C.3     1  LIG1        0.1554
     22 C           2.2630    0.0821   -3.2162 C.3     1  LIG1        0.0601
     23 C           2.4789    1.4056   -0.9014 C.2     1  LIG1        0.0833
     24 O           2.4378    0.4657   -0.0552 O.co2   1  LIG1       -0.5460
     25 O           2.0952    2.6063   -0.7463 O.co2   1  LIG1       -0.5460
     26 C           0.8516    0.5693   -3.6724 C.ar    1  LIG1       -0.0332
     27 C           2.0552   -1.2485   -2.4303 C.3     1  LIG1       -0.0477
     28 H           4.6200   -2.5446   -6.4343 H       1  LIG1        0.0618
     29 H           5.2196   -0.5608   -7.7989 H       1  LIG1        0.0618
     30 H           4.4727    1.6971   -7.0791 H       1  LIG1        0.0618
     31 H           3.1295    1.9687   -5.0476 H       1  LIG1        0.0621
     32 H           3.3327   -2.2988   -4.3795 H       1  LIG1        0.0621
     33 H           0.9286    2.5788   -2.8348 H       1  LIG1        0.0621
     34 H          -1.2775    3.2405   -3.5867 H       1  LIG1        0.0618
     35 H          -2.6998    1.6862   -4.9037 H       1  LIG1        0.0618
     36 H          -1.8440   -0.5796   -5.4620 H       1  LIG1        0.0618
     37 H           0.3803   -1.2780   -4.7152 H       1  LIG1        0.0621
     38 H           8.4765    3.2257   -3.6078 H       1  LIG1        0.0653
     39 H           7.1616    5.2487   -3.4731 H       1  LIG1        0.0293
     40 H           6.0502    5.1978   -2.0916 H       1  LIG1        0.0293
     41 H           5.4285    5.0090   -3.7502 H       1  LIG1        0.0293
     42 H           8.7694   -0.5357   -3.2435 H       1  LIG1        0.0293
     43 H           9.7360    0.8977   -2.8545 H       1  LIG1        0.0293
     44 H           9.1385    0.6422   -4.5164 H       1  LIG1        0.0293
     45 H           3.1599    2.0350   -2.8261 H       1  LIG1        0.0810
     46 H           2.9974   -1.6359   -2.0268 H       1  LIG1        0.0243
     47 H           1.6231   -2.0480   -3.0421 H       1  LIG1        0.0243
     48 H           1.3567   -1.1155   -1.5970 H       1  LIG1        0.0243
@<TRIPOS>BOND
     1     1     2   ar
     2     2     3   ar
     3     3     4   ar
     4     4     5   ar
     5     5     6   ar
     6     5    22    1
     7     6     1   ar
     8     7     8   ar
     9     8     9   ar
    10     9    10   ar
    11    10    11   ar
    12    11    26   ar
    13    12    13   ar
    14    13    14   ar
    15    14    15   ar
    16    15    16   ar
    17    15    19    1
    18    16    17   ar
    19    17    12   ar
    20    17    18    1
    21    20    21    1
    22    20    13    1
    23    21    23    1
    24    21    22    1
    25    22    27    1
    26    22    26    1
    27    23    25   ar
    28    23    24   ar
    29    26     7   ar
    30     1    28    1
    31     2    29    1
    32     3    30    1
    33     4    31    1
    34     6    32    1
    35     7    33    1
    36     8    34    1
    37     9    35    1
    38    10    36    1
    39    11    37    1
    40    16    38    1
    41    18    39    1
    42    18    40    1
    43    18    41    1
    44    19    42    1
    45    19    43    1
    46    19    44    1
    47    21    45    1
    48    27    46    1
    49    27    47    1
    50    27    48    1
@<TRIPOS>MOLECULE
*****
 48 50 0 0 0
SMALL
GASTEIGER

@<TRIPOS>ATOM
      1 C           4.6616    0.6254   -6.3738 C.ar    1  LIG1       -0.0615
      2 C           4.5594   -0.5910   -7.0358 C.ar    1  LIG1       -0.0617
      3 C           3.7528   -1.5896   -6.5051 C.ar    1  LIG1       -0.0615
      4 C           3.0647   -1.3766   -5.3046 C.ar    1  LIG1       -0.0576
      5 C           3.1839   -0.1711   -4.5816 C.ar    1  LIG1       -0.0332
      6 C           3.9751    0.8336   -5.1718 C.ar    1  LIG1       -0.0576
      7 C           0.7135    1.6487   -4.3266 C.ar    1  LIG1       -0.0576
      8 C          -0.5754    2.0435   -4.6959 C.ar    1  LIG1       -0.0615
      9 C          -1.6702    1.2632   -4.3438 C.ar    1  LIG1       -0.0617
     10 C          -1.4738    0.0953   -3.6143 C.ar    1  LIG1       -0.0615
     11 C          -0.1827   -0.2984   -3.2440 C.ar    1  LIG1       -0.0576
     12 N           6.4967    0.5239   -2.4754 N.ar    1  LIG1       -0.2002
     13 C           5.4382    1.3130   -2.2299 C.ar    1  LIG1        0.3190
     14 N           5.4104    2.6427   -2.4023 N.ar    1  LIG1       -0.2002
     15 C           6.5256    3.2158   -2.8846 C.ar    1  LIG1        0.0453
     16 C           7.6544    2.4849   -3.1993 C.ar    1  LIG1       -0.0193
     17 C           7.5956    1.1244   -2.9667 C.ar    1  LIG1        0.0453
     18 C           8.7476    0.2318   -3.3095 C.3     1  LIG1       -0.0221
     19 C           6.4956    4.6990   -3.0887 C.3     1  LIG1       -0.0221
     20 O           4.3223    0.6596   -1.7781 O.3     1  LIG1       -0.4519
     21 C           3.0662    1.1597   -2.3131 C.3     1  LIG1        0.1554
     22 C           2.3979    0.0500   -3.2239 C.3     1  LIG1        0.0601
     23 C           2.1922    1.6119   -1.1056 C.2     1  LIG1        0.0833
     24 O           1.9731    0.7575   -0.1980 O.co2   1  LIG1       -0.5460
     25 O           1.8019    2.8203   -1.1495 O.co2   1  LIG1       -0.5460
     26 C           0.9440    0.4619   -3.6013 C.ar    1  LIG1       -0.0332
     27 C           2.4569   -1.3035   -2.4389 C.3     1  LIG1       -0.0477
     28 H           5.2717    1.4239   -6.7852 H       1  LIG1        0.0618
     29 H           5.0941   -0.7540   -7.9657 H       1  LIG1        0.0618
     30 H           3.6487   -2.5387   -7.0224 H       1  LIG1        0.0618
     31 H           2.4224   -2.1771   -4.9507 H       1  LIG1        0.0621
     32 H           4.0746    1.8142   -4.7163 H       1  LIG1        0.0621
     33 H           1.5436    2.2982   -4.5928 H       1  LIG1        0.0621
     34 H          -0.7163    2.9737   -5.2378 H       1  LIG1        0.0618
     35 H          -2.6728    1.5775   -4.6138 H       1  LIG1        0.0618
     36 H          -2.3255   -0.5041   -3.3075 H       1  LIG1        0.0618
     37 H          -0.0856   -1.1970   -2.6423 H       1  LIG1        0.0621
     38 H           8.5388    2.9575   -3.6044 H       1  LIG1        0.0653
     39 H           9.6720    0.8016   -3.4468 H       1  LIG1        0.0293
     40 H           8.5321   -0.3111   -4.2350 H       1  LIG1        0.0293
     41 H           8.9160   -0.4922   -2.5060 H       1  LIG1        0.0293
     42 H           5.5308    5.1165   -2.7827 H       1  LIG1        0.0293
     43 H           6.6498    4.9382   -4.1455 H       1  LIG1        0.0293
     44 H           7.2784    5.1790   -2.4932 H       1  LIG1        0.0293
     45 H           3.2074    2.0751   -2.8976 H       1  LIG1        0.0810
     46 H           3.4906   -1.6359   -2.2856 H       1  LIG1        0.0243
     47 H           1.9398   -2.1220   -2.9502 H       1  LIG1        0.0243
     48 H           1.9829   -1.2400   -1.4565 H       1  LIG1        0.0243
@<TRIPOS>BOND
     1     1     2   ar
     2     2     3   ar
     3     3     4   ar
     4     4     5   ar
     5     5     6   ar
     6     5    22    1
     7     6     1   ar
     8     7     8   ar
     9     8     9   ar
    10     9    10   ar
    11    10    11   ar
    12    11    26   ar
    13    12    13   ar
    14    13    14   ar
    15    14    15   ar
    16    15    16   ar
    17    15    19    1
    18    16    17   ar
    19    17    12   ar
    20    17    18    1
    21    20    21    1
    22    20    13    1
    23    21    23    1
    24    21    22    1
    25    22    27    1
    26    22    26    1
    27    23    25   ar
    28    23    24   ar
    29    26     7   ar
    30     1    28    1
    31     2    29    1
    32     3    30    1
    33     4    31    1
    34     6    32    1
    35     7    33    1
    36     8    34    1
    37     9    35    1
    38    10    36    1
    39    11    37    1
    40    16    38    1
    41    18    39    1
    42    18    40    1
    43    18    41    1
    44    19    42    1
    45    19    43    1
    46    19    44    1
    47    21    45    1
    48    27    46    1
    49    27    47    1
    50    27    48    1
@<TRIPOS>MOLECULE
*****
 48 50 0 0 0
SMALL
GASTEIGER

@<TRIPOS>ATOM
      1 C           3.9600    0.6593   -6.6137 C.ar    1  LIG1       -0.0615
      2 C           4.6141   -0.5426   -6.8536 C.ar    1  LIG1       -0.0617
      3 C           4.5174   -1.5747   -5.9255 C.ar    1  LIG1       -0.0615
      4 C           3.7676   -1.4068   -4.7555 C.ar    1  LIG1       -0.0576
      5 C           3.0842   -0.2062   -4.4928 C.ar    1  LIG1       -0.0332
      6 C           3.2026    0.8233   -5.4506 C.ar    1  LIG1       -0.0576
      7 C           0.3547    1.8001   -3.5056 C.ar    1  LIG1       -0.0576
      8 C          -0.9233    2.1644   -3.9443 C.ar    1  LIG1       -0.0615
      9 C          -1.7752    1.2132   -4.4956 C.ar    1  LIG1       -0.0617
     10 C          -1.3467   -0.1022   -4.6183 C.ar    1  LIG1       -0.0615
     11 C          -0.0654   -0.4631   -4.1902 C.ar    1  LIG1       -0.0576
     12 N           5.2563    2.4538   -3.1906 N.ar    1  LIG1       -0.2002
     13 C           5.4369    1.3392   -2.4658 C.ar    1  LIG1        0.3190
     14 N           6.6347    0.8040   -2.1744 N.ar    1  LIG1       -0.2002
     15 C           7.7167    1.4645   -2.6249 C.ar    1  LIG1        0.0453
     16 C           7.6251    2.6324   -3.3583 C.ar    1  LIG1       -0.0193
     17 C           6.3539    3.0964   -3.6213 C.ar    1  LIG1        0.0453
     18 C           6.1221    4.3528   -4.3992 C.3     1  LIG1       -0.0221
     19 C           9.0572    0.8759   -2.3099 C.3     1  LIG1       -0.0221
     20 O           4.3640    0.6005   -2.0267 O.3     1  LIG1       -0.4519
     21 C           3.0458    1.1244   -2.3465 C.3     1  LIG1        0.1554
     22 C           2.2529    0.0431   -3.1767 C.3     1  LIG1        0.0601
     23 C           2.4298    1.6211   -1.0064 C.2     1  LIG1        0.0833
     24 O           2.5452    2.8712   -0.8010 O.co2   1  LIG1       -0.5460
     25 O           1.8718    0.7666   -0.2673 O.co2   1  LIG1       -0.5460
     26 C           0.8135    0.4763   -3.6093 C.ar    1  LIG1       -0.0332
     27 C           2.1323   -1.2665   -2.3372 C.3     1  LIG1       -0.0477
     28 H           4.0424    1.4816   -7.3187 H       1  LIG1        0.0618
     29 H           5.2075   -0.6701   -7.7521 H       1  LIG1        0.0618
     30 H           5.0387   -2.5114   -6.0975 H       1  LIG1        0.0618
     31 H           3.7534   -2.2285   -4.0456 H       1  LIG1        0.0621
     32 H           2.7189    1.7844   -5.2796 H       1  LIG1        0.0621
     33 H           0.9745    2.5859   -3.0802 H       1  LIG1        0.0621
     34 H          -1.2466    3.1980   -3.8408 H       1  LIG1        0.0618
     35 H          -2.7691    1.4996   -4.8251 H       1  LIG1        0.0618
     36 H          -2.0027   -0.8528   -5.0455 H       1  LIG1        0.0618
     37 H           0.2459   -1.4972   -4.3230 H       1  LIG1        0.0621
     38 H           8.5060    3.1529   -3.7086 H       1  LIG1        0.0653
     39 H           7.0597    4.7798   -4.7701 H       1  LIG1        0.0293
     40 H           5.6331    5.0988   -3.7641 H       1  LIG1        0.0293
     41 H           5.4796    4.1453   -5.2604 H       1  LIG1        0.0293
     42 H           8.9539   -0.0329   -1.7089 H       1  LIG1        0.0293
     43 H           9.6624    1.5917   -1.7441 H       1  LIG1        0.0293
     44 H           9.5811    0.6148   -3.2346 H       1  LIG1        0.0293
     45 H           3.1109    2.0255   -2.9679 H       1  LIG1        0.0810
     46 H           3.0835   -1.5470   -1.8721 H       1  LIG1        0.0243
     47 H           1.8134   -2.1265   -2.9376 H       1  LIG1        0.0243
     48 H           1.3853   -1.1774   -1.5414 H       1  LIG1        0.0243
@<TRIPOS>BOND
     1     1     2   ar
     2     2     3   ar
     3     3     4   ar
     4     4     5   ar
     5     5     6   ar
     6     5    22    1
     7     6     1   ar
     8     7     8   ar
     9     8     9   ar
    10     9    10   ar
    11    10    11   ar
    12    11    26   ar
    13    12    13   ar
    14    13    14   ar
    15    14    15   ar
    16    15    16   ar
    17    15    19    1
    18    16    17   ar
    19    17    12   ar
    20    17    18    1
    21    20    21    1
    22    20    13    1
    23    21    23    1
    24    21    22    1
    25    22    27    1
    26    22    26    1
    27    23    25   ar
    28    23    24   ar
    29    26     7   ar
    30     1    28    1
    31     2    29    1
    32     3    30    1
    33     4    31    1
    34     6    32    1
    35     7    33    1
    36     8    34    1
    37     9    35    1
    38    10    36    1
    39    11    37    1
    40    16    38    1
    41    18    39    1
    42    18    40    1
    43    18    41    1
    44    19    42    1
    45    19    43    1
    46    19    44    1
    47    21    45    1
    48    27    46    1
    49    27    47    1
    50    27    48    1
@<TRIPOS>MOLECULE
*****
 48 50 0 0 0
SMALL
GASTEIGER

@<TRIPOS>ATOM
      1 C           4.1830    0.6720   -6.6738 C.ar    1  LIG1       -0.0615
      2 C           4.7982   -0.5530   -6.8993 C.ar    1  LIG1       -0.0617
      3 C           4.6493   -1.5767   -5.9692 C.ar    1  LIG1       -0.0615
      4 C           3.8806   -1.3784   -4.8160 C.ar    1  LIG1       -0.0576
      5 C           3.2336   -0.1563   -4.5683 C.ar    1  LIG1       -0.0332
      6 C           3.4112    0.8665   -5.5247 C.ar    1  LIG1       -0.0576
      7 C           0.0282    1.2542   -2.9195 C.ar    1  LIG1       -0.0576
      8 C          -1.2719    1.5967   -3.3072 C.ar    1  LIG1       -0.0615
      9 C          -1.7713    1.1722   -4.5325 C.ar    1  LIG1       -0.0617
     10 C          -0.9763    0.3907   -5.3628 C.ar    1  LIG1       -0.0615
     11 C           0.3235    0.0507   -4.9734 C.ar    1  LIG1       -0.0576
     12 N           2.7817    4.6385   -3.1848 N.ar    1  LIG1       -0.2002
     13 C           2.6509    3.5263   -2.4383 C.ar    1  LIG1        0.3190
     14 N           1.9488    3.4529   -1.2963 N.ar    1  LIG1       -0.2002
     15 C           1.4021    4.5938   -0.8427 C.ar    1  LIG1        0.0453
     16 C           1.5019    5.7876   -1.5300 C.ar    1  LIG1       -0.0193
     17 C           2.2109    5.7604   -2.7138 C.ar    1  LIG1        0.0453
     18 C           2.3563    6.9856   -3.5604 C.3     1  LIG1       -0.0221
     19 C           0.6412    4.5199    0.4447 C.3     1  LIG1       -0.0221
     20 O           3.1478    2.3985   -3.0381 O.3     1  LIG1       -0.4519
     21 C           3.0099    1.1348   -2.3427 C.3     1  LIG1        0.1554
     22 C           2.3330    0.0821   -3.3132 C.3     1  LIG1        0.0601
     23 C           4.3910    0.7964   -1.6992 C.2     1  LIG1        0.0833
     24 O           4.8698   -0.3539   -1.9179 O.co2   1  LIG1       -0.5460
     25 O           4.8679    1.6924   -0.9371 O.co2   1  LIG1       -0.5460
     26 C           0.8745    0.5048   -3.7563 C.ar    1  LIG1       -0.0332
     27 C           2.0492   -1.2254   -2.5093 C.3     1  LIG1       -0.0477
     28 H           4.3073    1.4888   -7.3792 H       1  LIG1        0.0618
     29 H           5.4088   -0.7030   -7.7829 H       1  LIG1        0.0618
     30 H           5.1498   -2.5288   -6.1198 H       1  LIG1        0.0618
     31 H           3.8296   -2.1912   -4.0965 H       1  LIG1        0.0621
     32 H           2.9385    1.8367   -5.3800 H       1  LIG1        0.0621
     33 H           0.3574    1.5799   -1.9386 H       1  LIG1        0.0621
     34 H          -1.8880    2.1928   -2.6404 H       1  LIG1        0.0618
     35 H          -2.7792    1.4399   -4.8337 H       1  LIG1        0.0618
     36 H          -1.3602    0.0389   -6.3155 H       1  LIG1        0.0618
     37 H           0.9071   -0.5800   -5.6407 H       1  LIG1        0.0621
     38 H           1.0428    6.6937   -1.1587 H       1  LIG1        0.0653
     39 H           1.9091    7.8649   -3.0845 H       1  LIG1        0.0293
     40 H           1.8612    6.8310   -4.5250 H       1  LIG1        0.0293
     41 H           3.4162    7.1959   -3.7359 H       1  LIG1        0.0293
     42 H           0.6860    3.5113    0.8676 H       1  LIG1        0.0293
     43 H          -0.4104    4.7715    0.2758 H       1  LIG1        0.0293
     44 H           1.0645    5.2150    1.1763 H       1  LIG1        0.0293
     45 H           2.3642    1.2233   -1.4612 H       1  LIG1        0.0810
     46 H           2.9488   -1.7079   -2.1219 H       1  LIG1        0.0243
     47 H           1.5334   -1.9733   -3.1255 H       1  LIG1        0.0243
     48 H           1.4059   -1.0267   -1.6431 H       1  LIG1        0.0243
@<TRIPOS>BOND
     1     1     2   ar
     2     2     3   ar
     3     3     4   ar
     4     4     5   ar
     5     5     6   ar
     6     5    22    1
     7     6     1   ar
     8     7     8   ar
     9     8     9   ar
    10     9    10   ar
    11    10    11   ar
    12    11    26   ar
    13    12    13   ar
    14    13    14   ar
    15    14    15   ar
    16    15    16   ar
    17    15    19    1
    18    16    17   ar
    19    17    12   ar
    20    17    18    1
    21    20    21    1
    22    20    13    1
    23    21    23    1
    24    21    22    1
    25    22    27    1
    26    22    26    1
    27    23    25   ar
    28    23    24   ar
    29    26     7   ar
    30     1    28    1
    31     2    29    1
    32     3    30    1
    33     4    31    1
    34     6    32    1
    35     7    33    1
    36     8    34    1
    37     9    35    1
    38    10    36    1
    39    11    37    1
    40    16    38    1
    41    18    39    1
    42    18    40    1
    43    18    41    1
    44    19    42    1
    45    19    43    1
    46    19    44    1
    47    21    45    1
    48    27    46    1
    49    27    47    1
    50    27    48    1
@<TRIPOS>MOLECULE
*****
 48 50 0 0 0
SMALL
GASTEIGER

@<TRIPOS>ATOM
      1 C           4.6459    0.6014   -6.3788 C.ar    1  LIG1       -0.0615
      2 C           4.5494   -0.6221   -7.0282 C.ar    1  LIG1       -0.0617
      3 C           3.7512   -1.6207   -6.4846 C.ar    1  LIG1       -0.0615
      4 C           3.0654   -1.4002   -5.2839 C.ar    1  LIG1       -0.0576
      5 C           3.1787   -0.1864   -4.5742 C.ar    1  LIG1       -0.0332
      6 C           3.9619    0.8175   -5.1770 C.ar    1  LIG1       -0.0576
      7 C           0.7168    1.6574   -4.3108 C.ar    1  LIG1       -0.0576
      8 C          -0.5700    2.0559   -4.6838 C.ar    1  LIG1       -0.0615
      9 C          -1.6669    1.2722   -4.3462 C.ar    1  LIG1       -0.0617
     10 C          -1.4748    0.0972   -3.6271 C.ar    1  LIG1       -0.0615
     11 C          -0.1859   -0.3004   -3.2531 C.ar    1  LIG1       -0.0576
     12 N           6.5124    0.5309   -2.4890 N.ar    1  LIG1       -0.2002
     13 C           5.4487    1.3134   -2.2441 C.ar    1  LIG1        0.3190
     14 N           5.4130    2.6430   -2.4157 N.ar    1  LIG1       -0.2002
     15 C           6.5257    3.2234   -2.8950 C.ar    1  LIG1        0.0453
     16 C           7.6598    2.4999   -3.2083 C.ar    1  LIG1       -0.0193
     17 C           7.6086    1.1387   -2.9775 C.ar    1  LIG1        0.0453
     18 C           8.7672    0.2536   -3.3175 C.3     1  LIG1       -0.0221
     19 C           6.4877    4.7068   -3.0965 C.3     1  LIG1       -0.0221
     20 O           4.3365    0.6522   -1.7943 O.3     1  LIG1       -0.4519
     21 C           3.0757    1.1556   -2.3146 C.3     1  LIG1        0.1554
     22 C           2.3953    0.0459   -3.2167 C.3     1  LIG1        0.0601
     23 C           2.2149    1.6121   -1.0996 C.2     1  LIG1        0.0833
     24 O           2.0256    0.7699   -0.1741 O.co2   1  LIG1       -0.5460
     25 O           1.8032    2.8121   -1.1561 O.co2   1  LIG1       -0.5460
     26 C           0.9432    0.4637   -3.5953 C.ar    1  LIG1       -0.0332
     27 C           2.4449   -1.3016   -2.4209 C.3     1  LIG1       -0.0477
     28 H           5.2499    1.3995   -6.8000 H       1  LIG1        0.0618
     29 H           5.0822   -0.7914   -7.9581 H       1  LIG1        0.0618
     30 H           3.6521   -2.5759   -6.9916 H       1  LIG1        0.0618
     31 H           2.4307   -2.2021   -4.9199 H       1  LIG1        0.0621
     32 H           4.0569    1.8026   -4.7313 H       1  LIG1        0.0621
     33 H           1.5483    2.3095   -4.5666 H       1  LIG1        0.0621
     34 H          -0.7076    2.9913   -5.2176 H       1  LIG1        0.0618
     35 H          -2.6681    1.5893   -4.6192 H       1  LIG1        0.0618
     36 H          -2.3284   -0.5056   -3.3324 H       1  LIG1        0.0618
     37 H          -0.0931   -1.2064   -2.6622 H       1  LIG1        0.0621
     38 H           8.5425    2.9785   -3.6105 H       1  LIG1        0.0653
     39 H           9.6864    0.8300   -3.4607 H       1  LIG1        0.0293
     40 H           8.5539   -0.2966   -4.2390 H       1  LIG1        0.0293
     41 H           8.9434   -0.4640   -2.5102 H       1  LIG1        0.0293
     42 H           5.5197    5.1182   -2.7926 H       1  LIG1        0.0293
     43 H           6.6434    4.9486   -4.1524 H       1  LIG1        0.0293
     44 H           7.2660    5.1903   -2.4982 H       1  LIG1        0.0293
     45 H           3.2136    2.0692   -2.9027 H       1  LIG1        0.0810
     46 H           3.4762   -1.6363   -2.2581 H       1  LIG1        0.0243
     47 H           1.9288   -2.1227   -2.9287 H       1  LIG1        0.0243
     48 H           1.9635   -1.2278   -1.4429 H       1  LIG1        0.0243
@<TRIPOS>BOND
     1     1     2   ar
     2     2     3   ar
     3     3     4   ar
     4     4     5   ar
     5     5     6   ar
     6     5    22    1
     7     6     1   ar
     8     7     8   ar
     9     8     9   ar
    10     9    10   ar
    11    10    11   ar
    12    11    26   ar
    13    12    13   ar
    14    13    14   ar
    15    14    15   ar
    16    15    16   ar
    17    15    19    1
    18    16    17   ar
    19    17    12   ar
    20    17    18    1
    21    20    21    1
    22    20    13    1
    23    21    23    1
    24    21    22    1
    25    22    27    1
    26    22    26    1
    27    23    25   ar
    28    23    24   ar
    29    26     7   ar
    30     1    28    1
    31     2    29    1
    32     3    30    1
    33     4    31    1
    34     6    32    1
    35     7    33    1
    36     8    34    1
    37     9    35    1
    38    10    36    1
    39    11    37    1
    40    16    38    1
    41    18    39    1
    42    18    40    1
    43    18    41    1
    44    19    42    1
    45    19    43    1
    46    19    44    1
    47    21    45    1
    48    27    46    1
    49    27    47    1
    50    27    48    1
@<TRIPOS>MOLECULE
*****
 48 50 0 0 0
SMALL
GASTEIGER

@<TRIPOS>ATOM
      1 C           4.2860   -1.5278   -6.1114 C.ar    1  LIG1       -0.0615
      2 C           4.6667   -0.4110   -6.8488 C.ar    1  LIG1       -0.0617
      3 C           4.2827    0.8560   -6.4242 C.ar    1  LIG1       -0.0615
      4 C           3.5137    1.0034   -5.2670 C.ar    1  LIG1       -0.0576
      5 C           3.1276   -0.1111   -4.4920 C.ar    1  LIG1       -0.0332
      6 C           3.5304   -1.3805   -4.9426 C.ar    1  LIG1       -0.0576
      7 C           0.4031    1.9158   -3.4075 C.ar    1  LIG1       -0.0576
      8 C          -0.8539    2.3353   -3.8609 C.ar    1  LIG1       -0.0615
      9 C          -1.6647    1.4738   -4.5923 C.ar    1  LIG1       -0.0617
     10 C          -1.2148    0.1915   -4.8794 C.ar    1  LIG1       -0.0615
     11 C           0.0387   -0.2258   -4.4237 C.ar    1  LIG1       -0.0576
     12 N           6.6740    0.9261   -2.1305 N.ar    1  LIG1       -0.2002
     13 C           5.4397    1.4029   -1.8940 C.ar    1  LIG1        0.3190
     14 N           5.1608    2.6617   -1.5314 N.ar    1  LIG1       -0.2002
     15 C           6.2014    3.4923   -1.3554 C.ar    1  LIG1        0.0453
     16 C           7.5055    3.0977   -1.5789 C.ar    1  LIG1       -0.0193
     17 C           7.6952    1.7874   -1.9721 C.ar    1  LIG1        0.0453
     18 C           9.0630    1.2594   -2.2753 C.3     1  LIG1       -0.0221
     19 C           5.8913    4.8856   -0.9027 C.3     1  LIG1       -0.0221
     20 O           4.4294    0.4940   -2.0878 O.3     1  LIG1       -0.4519
     21 C           3.0986    1.0758   -2.2430 C.3     1  LIG1        0.1554
     22 C           2.2716    0.1085   -3.1867 C.3     1  LIG1        0.0601
     23 C           2.4898    1.3122   -0.8254 C.2     1  LIG1        0.0833
     24 O           1.8993    2.4211   -0.6647 O.co2   1  LIG1       -0.5460
     25 O           2.6422    0.3825    0.0226 O.co2   1  LIG1       -0.5460
     26 C           0.8739    0.6193   -3.6577 C.ar    1  LIG1       -0.0332
     27 C           2.0394   -1.2269   -2.4145 C.3     1  LIG1       -0.0477
     28 H           4.5858   -2.5213   -6.4345 H       1  LIG1        0.0618
     29 H           5.2658   -0.5273   -7.7458 H       1  LIG1        0.0618
     30 H           4.5821    1.7368   -6.9857 H       1  LIG1        0.0618
     31 H           3.2222    2.0061   -4.9641 H       1  LIG1        0.0621
     32 H           3.2780   -2.2795   -4.3911 H       1  LIG1        0.0621
     33 H           0.9923    2.6349   -2.8445 H       1  LIG1        0.0621
     34 H          -1.1923    3.3411   -3.6261 H       1  LIG1        0.0618
     35 H          -2.6399    1.8028   -4.9349 H       1  LIG1        0.0618
     36 H          -1.8329   -0.4890   -5.4569 H       1  LIG1        0.0618
     37 H           0.3683   -1.2283   -4.6848 H       1  LIG1        0.0621
     38 H           8.3325    3.7819   -1.4477 H       1  LIG1        0.0653
     39 H           9.8442    1.9756   -2.0021 H       1  LIG1        0.0293
     40 H           9.1486    1.0481   -3.3456 H       1  LIG1        0.0293
     41 H           9.2403    0.3352   -1.7164 H       1  LIG1        0.0293
     42 H           4.8152    5.0166   -0.7472 H       1  LIG1        0.0293
     43 H           6.2182    5.6096   -1.6553 H       1  LIG1        0.0293
     44 H           6.3986    5.0974    0.0438 H       1  LIG1        0.0293
     45 H           3.1876    2.0501   -2.7397 H       1  LIG1        0.0810
     46 H           2.9757   -1.6346   -2.0165 H       1  LIG1        0.0243
     47 H           1.5927   -2.0140   -3.0315 H       1  LIG1        0.0243
     48 H           1.3464   -1.0867   -1.5773 H       1  LIG1        0.0243
@<TRIPOS>BOND
     1     1     2   ar
     2     2     3   ar
     3     3     4   ar
     4     4     5   ar
     5     5     6   ar
     6     5    22    1
     7     6     1   ar
     8     7     8   ar
     9     8     9   ar
    10     9    10   ar
    11    10    11   ar
    12    11    26   ar
    13    12    13   ar
    14    13    14   ar
    15    14    15   ar
    16    15    16   ar
    17    15    19    1
    18    16    17   ar
    19    17    12   ar
    20    17    18    1
    21    20    21    1
    22    20    13    1
    23    21    23    1
    24    21    22    1
    25    22    27    1
    26    22    26    1
    27    23    25   ar
    28    23    24   ar
    29    26     7   ar
    30     1    28    1
    31     2    29    1
    32     3    30    1
    33     4    31    1
    34     6    32    1
    35     7    33    1
    36     8    34    1
    37     9    35    1
    38    10    36    1
    39    11    37    1
    40    16    38    1
    41    18    39    1
    42    18    40    1
    43    18    41    1
    44    19    42    1
    45    19    43    1
    46    19    44    1
    47    21    45    1
    48    27    46    1
    49    27    47    1
    50    27    48    1
@<TRIPOS>MOLECULE
*****
 48 50 0 0 0
SMALL
GASTEIGER

@<TRIPOS>ATOM
      1 C           3.8839    0.5157   -6.7796 C.ar    1  LIG1       -0.0615
      2 C           4.7903   -0.5388   -6.7997 C.ar    1  LIG1       -0.0617
      3 C           4.9169   -1.3581   -5.6821 C.ar    1  LIG1       -0.0615
      4 C           4.1219   -1.1367   -4.5526 C.ar    1  LIG1       -0.0576
      5 C           3.1724   -0.0989   -4.5196 C.ar    1  LIG1       -0.0332
      6 C           3.0935    0.7393   -5.6490 C.ar    1  LIG1       -0.0576
      7 C           0.1599    1.7155   -3.2794 C.ar    1  LIG1       -0.0576
      8 C          -1.1407    2.0255   -3.6948 C.ar    1  LIG1       -0.0615
      9 C          -1.8222    1.1842   -4.5677 C.ar    1  LIG1       -0.0617
     10 C          -1.2004    0.0327   -5.0324 C.ar    1  LIG1       -0.0615
     11 C           0.1015   -0.2702   -4.6235 C.ar    1  LIG1       -0.0576
     12 N           2.0505    0.5013    1.1038 N.ar    1  LIG1       -0.2002
     13 C           2.8628    0.9126    0.1148 C.ar    1  LIG1        0.3190
     14 N           4.1980    0.9963    0.2014 N.ar    1  LIG1       -0.2002
     15 C           4.7513    0.6632    1.3802 C.ar    1  LIG1        0.0453
     16 C           3.9987    0.2308    2.4560 C.ar    1  LIG1       -0.0193
     17 C           2.6329    0.1636    2.2677 C.ar    1  LIG1        0.0453
     18 C           1.7185   -0.3042    3.3562 C.3     1  LIG1       -0.0221
     19 C           6.2418    0.7669    1.4888 C.3     1  LIG1       -0.0221
     20 O           2.2159    1.2041   -1.0569 O.3     1  LIG1       -0.4519
     21 C           3.0119    1.1075   -2.2713 C.3     1  LIG1        0.1554
     22 C           2.2585    0.1618   -3.2835 C.3     1  LIG1        0.0601
     23 C           3.4355    2.5284   -2.7381 C.2     1  LIG1        0.0833
     24 O           4.5251    2.5865   -3.3848 O.co2   1  LIG1       -0.5460
     25 O           2.6906    3.4968   -2.4021 O.co2   1  LIG1       -0.5460
     26 C           0.8174    0.5647   -3.7332 C.ar    1  LIG1       -0.0332
     27 C           2.0250   -1.1832   -2.5016 C.3     1  LIG1       -0.0477
     28 H           3.8037    1.1885   -7.6277 H       1  LIG1        0.0618
     29 H           5.4180   -0.6993   -7.6702 H       1  LIG1        0.0618
     30 H           5.6497   -2.1589   -5.6762 H       1  LIG1        0.0618
     31 H           4.2781   -1.7774   -3.6909 H       1  LIG1        0.0621
     32 H           2.4261    1.6005   -5.6442 H       1  LIG1        0.0621
     33 H           0.6357    2.4052   -2.5871 H       1  LIG1        0.0621
     34 H          -1.6088    2.9344   -3.3254 H       1  LIG1        0.0618
     35 H          -2.8300    1.4307   -4.8834 H       1  LIG1        0.0618
     36 H          -1.7189   -0.6317   -5.7159 H       1  LIG1        0.0618
     37 H           0.5695   -1.1725   -5.0133 H       1  LIG1        0.0621
     38 H           4.4619   -0.0403    3.3958 H       1  LIG1        0.0653
     39 H           2.2672   -0.5552    4.2689 H       1  LIG1        0.0293
     40 H           1.1783   -1.1975    3.0276 H       1  LIG1        0.0293
     41 H           0.9943    0.4794    3.5971 H       1  LIG1        0.0293
     42 H           6.6762    1.1449    0.5580 H       1  LIG1        0.0293
     43 H           6.6738   -0.2180    1.6916 H       1  LIG1        0.0293
     44 H           6.5154    1.4524    2.2961 H       1  LIG1        0.0293
     45 H           3.9644    0.5997   -2.0536 H       1  LIG1        0.0810
     46 H           2.9276   -1.5097   -1.9718 H       1  LIG1        0.0243
     47 H           1.7297   -2.0065   -3.1634 H       1  LIG1        0.0243
     48 H           1.2353   -1.0801   -1.7470 H       1  LIG1        0.0243
@<TRIPOS>BOND
     1     1     2   ar
     2     2     3   ar
     3     3     4   ar
     4     4     5   ar
     5     5     6   ar
     6     5    22    1
     7     6     1   ar
     8     7     8   ar
     9     8     9   ar
    10     9    10   ar
    11    10    11   ar
    12    11    26   ar
    13    12    13   ar
    14    13    14   ar
    15    14    15   ar
    16    15    16   ar
    17    15    19    1
    18    16    17   ar
    19    17    12   ar
    20    17    18    1
    21    20    21    1
    22    20    13    1
    23    21    23    1
    24    21    22    1
    25    22    27    1
    26    22    26    1
    27    23    25   ar
    28    23    24   ar
    29    26     7   ar
    30     1    28    1
    31     2    29    1
    32     3    30    1
    33     4    31    1
    34     6    32    1
    35     7    33    1
    36     8    34    1
    37     9    35    1
    38    10    36    1
    39    11    37    1
    40    16    38    1
    41    18    39    1
    42    18    40    1
    43    18    41    1
    44    19    42    1
    45    19    43    1
    46    19    44    1
    47    21    45    1
    48    27    46    1
    49    27    47    1
    50    27    48    1
@<TRIPOS>MOLECULE
*****
 48 50 0 0 0
SMALL
GASTEIGER

@<TRIPOS>ATOM
      1 C           4.0466    0.7013   -6.5365 C.ar    1  LIG1       -0.0615
      2 C           4.6391   -0.5257   -6.8114 C.ar    1  LIG1       -0.0617
      3 C           4.4728   -1.5847   -5.9242 C.ar    1  LIG1       -0.0615
      4 C           3.7134   -1.4194   -4.7605 C.ar    1  LIG1       -0.0576
      5 C           3.0944   -0.1925   -4.4621 C.ar    1  LIG1       -0.0332
      6 C           3.2827    0.8647   -5.3782 C.ar    1  LIG1       -0.0576
      7 C           0.3768    1.8341   -3.5050 C.ar    1  LIG1       -0.0576
      8 C          -0.8804    2.2241   -3.9797 C.ar    1  LIG1       -0.0615
      9 C          -1.7225    1.2960   -4.5839 C.ar    1  LIG1       -0.0617
     10 C          -1.3040   -0.0228   -4.7213 C.ar    1  LIG1       -0.0615
     11 C          -0.0430   -0.4089   -4.2576 C.ar    1  LIG1       -0.0576
     12 N           5.2777    2.6060   -2.7344 N.ar    1  LIG1       -0.2002
     13 C           5.4228    1.2928   -2.4944 C.ar    1  LIG1        0.3190
     14 N           6.5619    0.6025   -2.6806 N.ar    1  LIG1       -0.2002
     15 C           7.6202    1.2965   -3.1333 C.ar    1  LIG1        0.0453
     16 C           7.5740    2.6579   -3.3698 C.ar    1  LIG1       -0.0193
     17 C           6.3608    3.2782   -3.1528 C.ar    1  LIG1        0.0453
     18 C           6.2049    4.7588   -3.3171 C.3     1  LIG1       -0.0221
     19 C           8.8846    0.5323   -3.3828 C.3     1  LIG1       -0.0221
     20 O           4.3726    0.5402   -2.0257 O.3     1  LIG1       -0.4519
     21 C           3.0436    1.0906   -2.2739 C.3     1  LIG1        0.1554
     22 C           2.2443    0.0494   -3.1560 C.3     1  LIG1        0.0601
     23 C           2.4641    1.5152   -0.8888 C.2     1  LIG1        0.0833
     24 O           3.1454    2.3734   -0.2482 O.co2   1  LIG1       -0.5460
     25 O           1.3555    1.0148   -0.5446 O.co2   1  LIG1       -0.5460
     26 C           0.8252    0.5067   -3.6243 C.ar    1  LIG1       -0.0332
     27 C           2.0941   -1.2685   -2.3308 C.3     1  LIG1       -0.0477
     28 H           4.1814    1.5391   -7.2126 H       1  LIG1        0.0618
     29 H           5.2388   -0.6541   -7.7072 H       1  LIG1        0.0618
     30 H           4.9456   -2.5421   -6.1235 H       1  LIG1        0.0618
     31 H           3.6397   -2.2655   -4.0852 H       1  LIG1        0.0621
     32 H           2.8416    1.8396   -5.1821 H       1  LIG1        0.0621
     33 H           0.9875    2.5927   -3.0242 H       1  LIG1        0.0621
     34 H          -1.1985    3.2546   -3.8587 H       1  LIG1        0.0618
     35 H          -2.7024    1.5997   -4.9383 H       1  LIG1        0.0618
     36 H          -1.9539   -0.7558   -5.1870 H       1  LIG1        0.0618
     37 H           0.2611   -1.4409   -4.4021 H       1  LIG1        0.0621
     38 H           8.4420    3.2058   -3.7070 H       1  LIG1        0.0653
     39 H           7.0010    5.1799   -3.9371 H       1  LIG1        0.0293
     40 H           6.2320    5.2438   -2.3366 H       1  LIG1        0.0293
     41 H           5.2487    4.9869   -3.7977 H       1  LIG1        0.0293
     42 H           8.7499   -0.5300   -3.1558 H       1  LIG1        0.0293
     43 H           9.6919    0.9174   -2.7524 H       1  LIG1        0.0293
     44 H           9.1760    0.6196   -4.4338 H       1  LIG1        0.0293
     45 H           3.1025    2.0281   -2.8398 H       1  LIG1        0.0810
     46 H           3.0471   -1.5886   -1.8946 H       1  LIG1        0.0243
     47 H           1.7288   -2.1075   -2.9329 H       1  LIG1        0.0243
     48 H           1.3786   -1.1642   -1.5102 H       1  LIG1        0.0243
@<TRIPOS>BOND
     1     1     2   ar
     2     2     3   ar
     3     3     4   ar
     4     4     5   ar
     5     5     6   ar
     6     5    22    1
     7     6     1   ar
     8     7     8   ar
     9     8     9   ar
    10     9    10   ar
    11    10    11   ar
    12    11    26   ar
    13    12    13   ar
    14    13    14   ar
    15    14    15   ar
    16    15    16   ar
    17    15    19    1
    18    16    17   ar
    19    17    12   ar
    20    17    18    1
    21    20    21    1
    22    20    13    1
    23    21    23    1
    24    21    22    1
    25    22    27    1
    26    22    26    1
    27    23    25   ar
    28    23    24   ar
    29    26     7   ar
    30     1    28    1
    31     2    29    1
    32     3    30    1
    33     4    31    1
    34     6    32    1
    35     7    33    1
    36     8    34    1
    37     9    35    1
    38    10    36    1
    39    11    37    1
    40    16    38    1
    41    18    39    1
    42    18    40    1
    43    18    41    1
    44    19    42    1
    45    19    43    1
    46    19    44    1
    47    21    45    1
    48    27    46    1
    49    27    47    1
    50    27    48    1
@<TRIPOS>MOLECULE
*****
 48 50 0 0 0
SMALL
GASTEIGER

@<TRIPOS>ATOM
      1 C           3.8090    0.4538   -6.8225 C.ar    1  LIG1       -0.0615
      2 C           4.7777   -0.5427   -6.8234 C.ar    1  LIG1       -0.0617
      3 C           4.9550   -1.3301   -5.6898 C.ar    1  LIG1       -0.0615
      4 C           4.1613   -1.1236   -4.5552 C.ar    1  LIG1       -0.0576
      5 C           3.1644   -0.1307   -4.5324 C.ar    1  LIG1       -0.0332
      6 C           3.0170    0.6583   -5.6904 C.ar    1  LIG1       -0.0576
      7 C           0.2262    1.7528   -3.2977 C.ar    1  LIG1       -0.0576
      8 C          -1.0723    2.0762   -3.7050 C.ar    1  LIG1       -0.0615
      9 C          -1.8005    1.1968   -4.4981 C.ar    1  LIG1       -0.0617
     10 C          -1.2298   -0.0100   -4.8850 C.ar    1  LIG1       -0.0615
     11 C           0.0708   -0.3282   -4.4835 C.ar    1  LIG1       -0.0576
     12 N           2.1665    1.1210    1.1845 N.ar    1  LIG1       -0.2002
     13 C           2.9301    0.9894    0.0868 C.ar    1  LIG1        0.3190
     14 N           4.1651    0.4627    0.0757 N.ar    1  LIG1       -0.2002
     15 C           4.6869    0.1112    1.2618 C.ar    1  LIG1        0.0453
     16 C           3.9891    0.2384    2.4463 C.ar    1  LIG1       -0.0193
     17 C           2.7110    0.7543    2.3573 C.ar    1  LIG1        0.0453
     18 C           1.8534    0.9178    3.5736 C.3     1  LIG1       -0.0221
     19 C           6.0770   -0.4451    1.2523 C.3     1  LIG1       -0.0221
     20 O           2.2842    1.2702   -1.0861 O.3     1  LIG1       -0.4519
     21 C           3.0489    1.1649   -2.3216 C.3     1  LIG1        0.1554
     22 C           2.2931    0.1591   -3.2725 C.3     1  LIG1        0.0601
     23 C           3.4066    2.5956   -2.8294 C.2     1  LIG1        0.0833
     24 O           2.8448    3.5712   -2.2443 O.co2   1  LIG1       -0.5460
     25 O           4.2771    2.6589   -3.7461 O.co2   1  LIG1       -0.5460
     26 C           0.8353    0.5489   -3.6809 C.ar    1  LIG1       -0.0332
     27 C           2.1153   -1.1626   -2.4398 C.3     1  LIG1       -0.0477
     28 H           3.6884    1.1082   -7.6802 H       1  LIG1        0.0618
     29 H           5.4153   -0.6777   -7.6907 H       1  LIG1        0.0618
     30 H           5.7335   -2.0865   -5.6723 H       1  LIG1        0.0618
     31 H           4.3649   -1.7316   -3.6793 H       1  LIG1        0.0621
     32 H           2.3118    1.4882   -5.6982 H       1  LIG1        0.0621
     33 H           0.7409    2.4790   -2.6740 H       1  LIG1        0.0621
     34 H          -1.4989    3.0270   -3.3970 H       1  LIG1        0.0618
     35 H          -2.8047    1.4573   -4.8152 H       1  LIG1        0.0618
     36 H          -1.7868   -0.7026   -5.5079 H       1  LIG1        0.0618
     37 H           0.5008   -1.2688   -4.8205 H       1  LIG1        0.0621
     38 H           4.4216   -0.0552    3.3926 H       1  LIG1        0.0653
     39 H           2.3742    0.6036    4.4835 H       1  LIG1        0.0293
     40 H           0.9470    0.3122    3.4745 H       1  LIG1        0.0293
     41 H           1.5671    1.9679    3.6904 H       1  LIG1        0.0293
     42 H           6.4739   -0.4838    0.2325 H       1  LIG1        0.0293
     43 H           6.0800   -1.4621    1.6566 H       1  LIG1        0.0293
     44 H           6.7401    0.1846    1.8529 H       1  LIG1        0.0293
     45 H           4.0371    0.7226   -2.1345 H       1  LIG1        0.0810
     46 H           3.0511   -1.4703   -1.9580 H       1  LIG1        0.0243
     47 H           1.7850   -2.0069   -3.0562 H       1  LIG1        0.0243
     48 H           1.3738   -1.0424   -1.6400 H       1  LIG1        0.0243
@<TRIPOS>BOND
     1     1     2   ar
     2     2     3   ar
     3     3     4   ar
     4     4     5   ar
     5     5     6   ar
     6     5    22    1
     7     6     1   ar
     8     7     8   ar
     9     8     9   ar
    10     9    10   ar
    11    10    11   ar
    12    11    26   ar
    13    12    13   ar
    14    13    14   ar
    15    14    15   ar
    16    15    16   ar
    17    15    19    1
    18    16    17   ar
    19    17    12   ar
    20    17    18    1
    21    20    21    1
    22    20    13    1
    23    21    23    1
    24    21    22    1
    25    22    27    1
    26    22    26    1
    27    23    25   ar
    28    23    24   ar
    29    26     7   ar
    30     1    28    1
    31     2    29    1
    32     3    30    1
    33     4    31    1
    34     6    32    1
    35     7    33    1
    36     8    34    1
    37     9    35    1
    38    10    36    1
    39    11    37    1
    40    16    38    1
    41    18    39    1
    42    18    40    1
    43    18    41    1
    44    19    42    1
    45    19    43    1
    46    19    44    1
    47    21    45    1
    48    27    46    1
    49    27    47    1
    50    27    48    1
@<TRIPOS>MOLECULE
*****
 48 50 0 0 0
SMALL
GASTEIGER

@<TRIPOS>ATOM
      1 C           4.0930    0.5746   -6.7120 C.ar    1  LIG1       -0.0615
      2 C           4.7491   -0.6386   -6.8823 C.ar    1  LIG1       -0.0617
      3 C           4.6574   -1.6135   -5.8937 C.ar    1  LIG1       -0.0615
      4 C           3.9026   -1.3809   -4.7382 C.ar    1  LIG1       -0.0576
      5 C           3.2126   -0.1724   -4.5473 C.ar    1  LIG1       -0.0332
      6 C           3.3381    0.8041   -5.5589 C.ar    1  LIG1       -0.0576
      7 C           0.2784    0.1063   -4.8553 C.ar    1  LIG1       -0.0576
      8 C          -1.0248    0.4774   -5.2011 C.ar    1  LIG1       -0.0615
      9 C          -1.7615    1.3038   -4.3600 C.ar    1  LIG1       -0.0617
     10 C          -1.2003    1.7426   -3.1662 C.ar    1  LIG1       -0.0615
     11 C           0.1032    1.3697   -2.8217 C.ar    1  LIG1       -0.0576
     12 N           2.3186    4.4965   -3.4099 N.ar    1  LIG1       -0.2002
     13 C           2.6368    3.5317   -2.5284 C.ar    1  LIG1        0.3190
     14 N           2.3593    3.5695   -1.2160 N.ar    1  LIG1       -0.2002
     15 C           1.7649    4.6831   -0.7540 C.ar    1  LIG1        0.0453
     16 C           1.3917    5.7224   -1.5840 C.ar    1  LIG1       -0.0193
     17 C           1.6944    5.5829   -2.9234 C.ar    1  LIG1        0.0453
     18 C           1.2833    6.6186   -3.9231 C.3     1  LIG1       -0.0221
     19 C           1.5065    4.7582    0.7191 C.3     1  LIG1       -0.0221
     20 O           3.1997    2.4229   -3.1020 O.3     1  LIG1       -0.4519
     21 C           3.1042    1.1733   -2.3693 C.3     1  LIG1        0.1554
     22 C           2.3524    0.1144   -3.2755 C.3     1  LIG1        0.0601
     23 C           4.5285    0.8175   -1.8334 C.2     1  LIG1        0.0833
     24 O           5.2464    1.7945   -1.4583 O.co2   1  LIG1       -0.5460
     25 O           4.8082   -0.4128   -1.7342 O.co2   1  LIG1       -0.5460
     26 C           0.8915    0.5741   -3.6738 C.ar    1  LIG1       -0.0332
     27 C           2.0440   -1.1710   -2.4460 C.3     1  LIG1       -0.0477
     28 H           4.1767    1.3553   -7.4616 H       1  LIG1        0.0618
     29 H           5.3506   -0.8145   -7.7681 H       1  LIG1        0.0618
     30 H           5.1946   -2.5513   -5.9999 H       1  LIG1        0.0618
     31 H           3.9013   -2.1500   -3.9709 H       1  LIG1        0.0621
     32 H           2.8431    1.7680   -5.4494 H       1  LIG1        0.0621
     33 H           0.8163   -0.5597   -5.5269 H       1  LIG1        0.0621
     34 H          -1.4577    0.1149   -6.1287 H       1  LIG1        0.0618
     35 H          -2.7719    1.5954   -4.6280 H       1  LIG1        0.0618
     36 H          -1.7712    2.3740   -2.4920 H       1  LIG1        0.0618
     37 H           0.4854    1.7106   -1.8640 H       1  LIG1        0.0621
     38 H           0.8916    6.6010   -1.2005 H       1  LIG1        0.0653
     39 H           1.0596    7.5758   -3.4421 H       1  LIG1        0.0293
     40 H           0.3913    6.2795   -4.4591 H       1  LIG1        0.0293
     41 H           2.0873    6.7855   -4.6469 H       1  LIG1        0.0293
     42 H           1.8903    3.8693    1.2297 H       1  LIG1        0.0293
     43 H           0.4315    4.8260    0.9118 H       1  LIG1        0.0293
     44 H           2.0040    5.6350    1.1453 H       1  LIG1        0.0293
     45 H           2.5226    1.2873   -1.4459 H       1  LIG1        0.0810
     46 H           2.9289   -1.6947   -2.0819 H       1  LIG1        0.0243
     47 H           1.4789   -1.9034   -3.0378 H       1  LIG1        0.0243
     48 H           1.4374   -0.9362   -1.5621 H       1  LIG1        0.0243
@<TRIPOS>BOND
     1     1     2   ar
     2     2     3   ar
     3     3     4   ar
     4     4     5   ar
     5     5     6   ar
     6     5    22    1
     7     6     1   ar
     8     7     8   ar
     9     8     9   ar
    10     9    10   ar
    11    10    11   ar
    12    11    26   ar
    13    12    13   ar
    14    13    14   ar
    15    14    15   ar
    16    15    16   ar
    17    15    19    1
    18    16    17   ar
    19    17    12   ar
    20    17    18    1
    21    20    21    1
    22    20    13    1
    23    21    23    1
    24    21    22    1
    25    22    27    1
    26    22    26    1
    27    23    25   ar
    28    23    24   ar
    29    26     7   ar
    30     1    28    1
    31     2    29    1
    32     3    30    1
    33     4    31    1
    34     6    32    1
    35     7    33    1
    36     8    34    1
    37     9    35    1
    38    10    36    1
    39    11    37    1
    40    16    38    1
    41    18    39    1
    42    18    40    1
    43    18    41    1
    44    19    42    1
    45    19    43    1
    46    19    44    1
    47    21    45    1
    48    27    46    1
    49    27    47    1
    50    27    48    1
@<TRIPOS>MOLECULE
*****
 48 50 0 0 0
SMALL
GASTEIGER

@<TRIPOS>ATOM
      1 C           4.1013    0.7001   -6.7040 C.ar    1  LIG1       -0.0615
      2 C           4.7417   -0.5132   -6.9283 C.ar    1  LIG1       -0.0617
      3 C           4.6463   -1.5258   -5.9789 C.ar    1  LIG1       -0.0615
      4 C           3.9040   -1.3300   -4.8089 C.ar    1  LIG1       -0.0576
      5 C           3.2333   -0.1205   -4.5613 C.ar    1  LIG1       -0.0332
      6 C           3.3587    0.8931   -5.5357 C.ar    1  LIG1       -0.0576
      7 C           0.1086    1.3839   -2.8752 C.ar    1  LIG1       -0.0576
      8 C          -1.1955    1.7349   -3.2431 C.ar    1  LIG1       -0.0615
      9 C          -1.7462    1.2524   -4.4252 C.ar    1  LIG1       -0.0617
     10 C          -0.9979    0.4048   -5.2332 C.ar    1  LIG1       -0.0615
     11 C           0.3048    0.0559   -4.8645 C.ar    1  LIG1       -0.0576
     12 N           2.3632    4.4192   -3.4223 N.ar    1  LIG1       -0.2002
     13 C           2.6793    3.4927   -2.5003 C.ar    1  LIG1        0.3190
     14 N           2.3860    3.5792   -1.1950 N.ar    1  LIG1       -0.2002
     15 C           1.7652    4.6959   -0.7817 C.ar    1  LIG1        0.0453
     16 C           1.3832    5.6947   -1.6553 C.ar    1  LIG1       -0.0193
     17 C           1.7079    5.5094   -2.9852 C.ar    1  LIG1        0.0453
     18 C           1.2931    6.5022   -4.0260 C.3     1  LIG1       -0.0221
     19 C           1.4989    4.8237    0.6864 C.3     1  LIG1       -0.0221
     20 O           3.3213    2.3919   -3.0032 O.3     1  LIG1       -0.4519
     21 C           3.0943    1.1375   -2.3103 C.3     1  LIG1        0.1554
     22 C           2.3685    0.1174   -3.2818 C.3     1  LIG1        0.0601
     23 C           4.4476    0.7162   -1.6550 C.2     1  LIG1        0.0833
     24 O           4.8837    1.5010   -0.7574 O.co2   1  LIG1       -0.5460
     25 O           4.9510   -0.3888   -2.0056 O.co2   1  LIG1       -0.5460
     26 C           0.9070    0.5642   -3.6921 C.ar    1  LIG1       -0.0332
     27 C           2.0760   -1.1951   -2.4882 C.3     1  LIG1       -0.0477
     28 H           4.1856    1.5077   -7.4244 H       1  LIG1        0.0618
     29 H           5.3330   -0.6612   -7.8259 H       1  LIG1        0.0618
     30 H           5.1707   -2.4652   -6.1265 H       1  LIG1        0.0618
     31 H           3.8985   -2.1280   -4.0720 H       1  LIG1        0.0621
     32 H           2.8703    1.8551   -5.3856 H       1  LIG1        0.0621
     33 H           0.4765    1.7617   -1.9262 H       1  LIG1        0.0621
     34 H          -1.7767    2.3839   -2.5944 H       1  LIG1        0.0618
     35 H          -2.7570    1.5267   -4.7092 H       1  LIG1        0.0618
     36 H          -1.4204    0.0084   -6.1516 H       1  LIG1        0.0618
     37 H           0.8537   -0.6262   -5.5112 H       1  LIG1        0.0621
     38 H           0.8631    6.5779   -1.3113 H       1  LIG1        0.0653
     39 H           1.0356    7.4680   -3.5813 H       1  LIG1        0.0293
     40 H           0.4212    6.1247   -4.5683 H       1  LIG1        0.0293
     41 H           2.1078    6.6662   -4.7378 H       1  LIG1        0.0293
     42 H           1.8843    3.9558    1.2309 H       1  LIG1        0.0293
     43 H           0.4231    4.8938    0.8721 H       1  LIG1        0.0293
     44 H           1.9904    5.7177    1.0831 H       1  LIG1        0.0293
     45 H           2.4435    1.2694   -1.4364 H       1  LIG1        0.0810
     46 H           2.9723   -1.6881   -2.1056 H       1  LIG1        0.0243
     47 H           1.5538   -1.9353   -3.1082 H       1  LIG1        0.0243
     48 H           1.4362   -0.9966   -1.6186 H       1  LIG1        0.0243
@<TRIPOS>BOND
     1     1     2   ar
     2     2     3   ar
     3     3     4   ar
     4     4     5   ar
     5     5     6   ar
     6     5    22    1
     7     6     1   ar
     8     7     8   ar
     9     8     9   ar
    10     9    10   ar
    11    10    11   ar
    12    11    26   ar
    13    12    13   ar
    14    13    14   ar
    15    14    15   ar
    16    15    16   ar
    17    15    19    1
    18    16    17   ar
    19    17    12   ar
    20    17    18    1
    21    20    21    1
    22    20    13    1
    23    21    23    1
    24    21    22    1
    25    22    27    1
    26    22    26    1
    27    23    25   ar
    28    23    24   ar
    29    26     7   ar
    30     1    28    1
    31     2    29    1
    32     3    30    1
    33     4    31    1
    34     6    32    1
    35     7    33    1
    36     8    34    1
    37     9    35    1
    38    10    36    1
    39    11    37    1
    40    16    38    1
    41    18    39    1
    42    18    40    1
    43    18    41    1
    44    19    42    1
    45    19    43    1
    46    19    44    1
    47    21    45    1
    48    27    46    1
    49    27    47    1
    50    27    48    1
@<TRIPOS>MOLECULE
*****
 48 50 0 0 0
SMALL
GASTEIGER

@<TRIPOS>ATOM
      1 C           4.8836   -1.3630   -5.7108 C.ar    1  LIG1       -0.0615
      2 C           4.7837   -0.5102   -6.8051 C.ar    1  LIG1       -0.0617
      3 C           3.8977    0.5610   -6.7624 C.ar    1  LIG1       -0.0615
      4 C           3.1026    0.7682   -5.6320 C.ar    1  LIG1       -0.0576
      5 C           3.1558   -0.1025   -4.5264 C.ar    1  LIG1       -0.0332
      6 C           4.0840   -1.1582   -4.5813 C.ar    1  LIG1       -0.0576
      7 C           0.1318    1.6886   -3.2575 C.ar    1  LIG1       -0.0576
      8 C          -1.1659    2.0062   -3.6762 C.ar    1  LIG1       -0.0615
      9 C          -1.8340    1.1917   -4.5840 C.ar    1  LIG1       -0.0617
     10 C          -1.2015    0.0583   -5.0799 C.ar    1  LIG1       -0.0615
     11 C           0.0971   -0.2524   -4.6668 C.ar    1  LIG1       -0.0576
     12 N           2.0556    0.4989    1.1220 N.ar    1  LIG1       -0.2002
     13 C           2.8574    0.8980    0.1207 C.ar    1  LIG1        0.3190
     14 N           4.1919    0.9912    0.1953 N.ar    1  LIG1       -0.2002
     15 C           4.7575    0.6820    1.3747 C.ar    1  LIG1        0.0453
     16 C           4.0175    0.2640    2.4627 C.ar    1  LIG1       -0.0193
     17 C           2.6512    0.1853    2.2869 C.ar    1  LIG1        0.0453
     18 C           1.7481   -0.2697    3.3921 C.3     1  LIG1       -0.0221
     19 C           6.2483    0.7946    1.4665 C.3     1  LIG1       -0.0221
     20 O           2.1996    1.1622   -1.0525 O.3     1  LIG1       -0.4519
     21 C           2.9946    1.0720   -2.2668 C.3     1  LIG1        0.1554
     22 C           2.2375    0.1444   -3.2915 C.3     1  LIG1        0.0601
     23 C           3.4302    2.4943   -2.7196 C.2     1  LIG1        0.0833
     24 O           4.5528    2.5588   -3.3058 O.co2   1  LIG1       -0.5460
     25 O           2.6560    3.4562   -2.4367 O.co2   1  LIG1       -0.5460
     26 C           0.7997    0.5574   -3.7439 C.ar    1  LIG1       -0.0332
     27 C           1.9917   -1.2067   -2.5258 C.3     1  LIG1       -0.0477
     28 H           5.6010   -2.1792   -5.7216 H       1  LIG1        0.0618
     29 H           5.4151   -0.6585   -7.6745 H       1  LIG1        0.0618
     30 H           3.8375    1.2589   -7.5924 H       1  LIG1        0.0618
     31 H           2.4505    1.6416   -5.6085 H       1  LIG1        0.0621
     32 H           4.2193   -1.8275   -3.7378 H       1  LIG1        0.0621
     33 H           0.5978    2.3567   -2.5391 H       1  LIG1        0.0621
     34 H          -1.6423    2.9001   -3.2825 H       1  LIG1        0.0618
     35 H          -2.8396    1.4441   -4.9031 H       1  LIG1        0.0618
     36 H          -1.7105   -0.5854   -5.7911 H       1  LIG1        0.0618
     37 H           0.5721   -1.1395   -5.0799 H       1  LIG1        0.0621
     38 H           4.4891    0.0111    3.4033 H       1  LIG1        0.0653
     39 H           2.3074   -0.5033    4.3034 H       1  LIG1        0.0293
     40 H           1.2084   -1.1710    3.0829 H       1  LIG1        0.0293
     41 H           1.0227    0.5144    3.6278 H       1  LIG1        0.0293
     42 H           6.6715    1.1684    0.5286 H       1  LIG1        0.0293
     43 H           6.6880   -0.1863    1.6720 H       1  LIG1        0.0293
     44 H           6.5274    1.4878    2.2660 H       1  LIG1        0.0293
     45 H           3.9413    0.5520   -2.0529 H       1  LIG1        0.0810
     46 H           2.8918   -1.5484   -2.0002 H       1  LIG1        0.0243
     47 H           1.6868   -2.0192   -3.1968 H       1  LIG1        0.0243
     48 H           1.2037   -1.1051   -1.7682 H       1  LIG1        0.0243
@<TRIPOS>BOND
     1     1     2   ar
     2     2     3   ar
     3     3     4   ar
     4     4     5   ar
     5     5     6   ar
     6     5    22    1
     7     6     1   ar
     8     7     8   ar
     9     8     9   ar
    10     9    10   ar
    11    10    11   ar
    12    11    26   ar
    13    12    13   ar
    14    13    14   ar
    15    14    15   ar
    16    15    16   ar
    17    15    19    1
    18    16    17   ar
    19    17    12   ar
    20    17    18    1
    21    20    21    1
    22    20    13    1
    23    21    23    1
    24    21    22    1
    25    22    27    1
    26    22    26    1
    27    23    25   ar
    28    23    24   ar
    29    26     7   ar
    30     1    28    1
    31     2    29    1
    32     3    30    1
    33     4    31    1
    34     6    32    1
    35     7    33    1
    36     8    34    1
    37     9    35    1
    38    10    36    1
    39    11    37    1
    40    16    38    1
    41    18    39    1
    42    18    40    1
    43    18    41    1
    44    19    42    1
    45    19    43    1
    46    19    44    1
    47    21    45    1
    48    27    46    1
    49    27    47    1
    50    27    48    1
@<TRIPOS>MOLECULE
*****
 48 50 0 0 0
SMALL
GASTEIGER

@<TRIPOS>ATOM
      1 C           4.0106    0.7756   -6.6102 C.ar    1  LIG1       -0.0615
      2 C           4.7842   -0.3664   -6.7914 C.ar    1  LIG1       -0.0617
      3 C           4.7657   -1.3720   -5.8293 C.ar    1  LIG1       -0.0615
      4 C           3.9657   -1.2432   -4.6897 C.ar    1  LIG1       -0.0576
      5 C           3.1623   -0.1067   -4.4905 C.ar    1  LIG1       -0.0332
      6 C           3.2147    0.9075   -5.4699 C.ar    1  LIG1       -0.0576
      7 C           0.1944    1.6793   -3.1877 C.ar    1  LIG1       -0.0576
      8 C          -1.0954    2.0131   -3.6200 C.ar    1  LIG1       -0.0615
      9 C          -1.7570    1.2197   -4.5516 C.ar    1  LIG1       -0.0617
     10 C          -1.1300    0.0857   -5.0521 C.ar    1  LIG1       -0.0615
     11 C           0.1507   -0.2546   -4.6084 C.ar    1  LIG1       -0.0576
     12 N           6.5719    0.4905   -2.6703 N.ar    1  LIG1       -0.2002
     13 C           5.4719    1.2316   -2.4488 C.ar    1  LIG1        0.3190
     14 N           5.3972    2.5610   -2.6001 N.ar    1  LIG1       -0.2002
     15 C           6.5074    3.1878   -3.0231 C.ar    1  LIG1        0.0453
     16 C           7.6780    2.5106   -3.3035 C.ar    1  LIG1       -0.0193
     17 C           7.6632    1.1438   -3.1072 C.ar    1  LIG1        0.0453
     18 C           8.8685    0.3054   -3.3986 C.3     1  LIG1       -0.0221
     19 C           6.4310    4.6746   -3.1842 C.3     1  LIG1       -0.0221
     20 O           4.3860    0.5175   -2.0115 O.3     1  LIG1       -0.4519
     21 C           3.0825    1.1055   -2.2952 C.3     1  LIG1        0.1554
     22 C           2.2759    0.0940   -3.2022 C.3     1  LIG1        0.0601
     23 C           2.4736    1.4750   -0.9126 C.2     1  LIG1        0.0833
     24 O           2.2310    0.5220   -0.1165 O.co2   1  LIG1       -0.5460
     25 O           2.2700    2.7146   -0.7261 O.co2   1  LIG1       -0.5460
     26 C           0.8472    0.5336   -3.6619 C.ar    1  LIG1       -0.0332
     27 C           2.0680   -1.2515   -2.4463 C.3     1  LIG1       -0.0477
     28 H           4.0308    1.5738   -7.3458 H       1  LIG1        0.0618
     29 H           5.4130   -0.4655   -7.6703 H       1  LIG1        0.0618
     30 H           5.3886   -2.2536   -5.9483 H       1  LIG1        0.0618
     31 H           4.0129   -2.0306   -3.9427 H       1  LIG1        0.0621
     32 H           2.6346    1.8195   -5.3382 H       1  LIG1        0.0621
     33 H           0.6557    2.3441   -2.4643 H       1  LIG1        0.0621
     34 H          -1.5766    2.8981   -3.2121 H       1  LIG1        0.0618
     35 H          -2.7564    1.4850   -4.8805 H       1  LIG1        0.0618
     36 H          -1.6319   -0.5401   -5.7834 H       1  LIG1        0.0618
     37 H           0.6185   -1.1478   -5.0182 H       1  LIG1        0.0621
     38 H           8.5600    3.0288   -3.6538 H       1  LIG1        0.0653
     39 H           9.7430    0.9197   -3.6350 H       1  LIG1        0.0293
     40 H           8.6666   -0.3490   -4.2525 H       1  LIG1        0.0293
     41 H           9.1140   -0.3123   -2.5290 H       1  LIG1        0.0293
     42 H           5.4394    5.0479   -2.9084 H       1  LIG1        0.0293
     43 H           6.6226    4.9527   -4.2252 H       1  LIG1        0.0293
     44 H           7.1691    5.1630   -2.5402 H       1  LIG1        0.0293
     45 H           3.1745    2.0448   -2.8581 H       1  LIG1        0.0810
     46 H           2.9833   -1.5991   -1.9548 H       1  LIG1        0.0243
     47 H           1.7397   -2.0565   -3.1152 H       1  LIG1        0.0243
     48 H           1.2933   -1.1650   -1.6759 H       1  LIG1        0.0243
@<TRIPOS>BOND
     1     1     2   ar
     2     2     3   ar
     3     3     4   ar
     4     4     5   ar
     5     5     6   ar
     6     5    22    1
     7     6     1   ar
     8     7     8   ar
     9     8     9   ar
    10     9    10   ar
    11    10    11   ar
    12    11    26   ar
    13    12    13   ar
    14    13    14   ar
    15    14    15   ar
    16    15    16   ar
    17    15    19    1
    18    16    17   ar
    19    17    12   ar
    20    17    18    1
    21    20    21    1
    22    20    13    1
    23    21    23    1
    24    21    22    1
    25    22    27    1
    26    22    26    1
    27    23    25   ar
    28    23    24   ar
    29    26     7   ar
    30     1    28    1
    31     2    29    1
    32     3    30    1
    33     4    31    1
    34     6    32    1
    35     7    33    1
    36     8    34    1
    37     9    35    1
    38    10    36    1
    39    11    37    1
    40    16    38    1
    41    18    39    1
    42    18    40    1
    43    18    41    1
    44    19    42    1
    45    19    43    1
    46    19    44    1
    47    21    45    1
    48    27    46    1
    49    27    47    1
    50    27    48    1
@<TRIPOS>MOLECULE
*****
 48 50 0 0 0
SMALL
GASTEIGER

@<TRIPOS>ATOM
      1 C           4.1688    0.6201   -6.6836 C.ar    1  LIG1       -0.0615
      2 C           4.8089   -0.5993   -6.8729 C.ar    1  LIG1       -0.0617
      3 C           4.6778   -1.5989   -5.9151 C.ar    1  LIG1       -0.0615
      4 C           3.9035   -1.3843   -4.7688 C.ar    1  LIG1       -0.0576
      5 C           3.2330   -0.1665   -4.5567 C.ar    1  LIG1       -0.0332
      6 C           3.3917    0.8315   -5.5415 C.ar    1  LIG1       -0.0576
      7 C           0.0458    1.3111   -2.9391 C.ar    1  LIG1       -0.0576
      8 C          -1.2572    1.6413   -3.3255 C.ar    1  LIG1       -0.0615
      9 C          -1.7784    1.1530   -4.5180 C.ar    1  LIG1       -0.0617
     10 C          -1.0007    0.3219   -5.3172 C.ar    1  LIG1       -0.0615
     11 C           0.3016   -0.0079   -4.9289 C.ar    1  LIG1       -0.0576
     12 N           2.4553    3.5619   -1.1164 N.ar    1  LIG1       -0.2002
     13 C           2.5958    3.5384   -2.4496 C.ar    1  LIG1        0.3190
     14 N           2.1909    4.5096   -3.2851 N.ar    1  LIG1       -0.2002
     15 C           1.6013    5.5810   -2.7273 C.ar    1  LIG1        0.0453
     16 C           1.4220    5.7007   -1.3634 C.ar    1  LIG1       -0.0193
     17 C           1.8761    4.6537   -0.5852 C.ar    1  LIG1        0.0453
     18 C           1.7396    4.6767    0.9052 C.3     1  LIG1       -0.0221
     19 C           1.1146    6.6494   -3.6562 C.3     1  LIG1       -0.0221
     20 O           3.1223    2.4418   -3.0777 O.3     1  LIG1       -0.4519
     21 C           3.0035    1.1835   -2.3724 C.3     1  LIG1        0.1554
     22 C           2.3341    0.1012   -3.3077 C.3     1  LIG1        0.0601
     23 C           4.3903    0.7606   -1.8129 C.2     1  LIG1        0.0833
     24 O           5.4207    1.2488   -2.3595 O.co2   1  LIG1       -0.5460
     25 O           4.3384   -0.0293   -0.8180 O.co2   1  LIG1       -0.5460
     26 C           0.8720    0.5056   -3.7454 C.ar    1  LIG1       -0.0332
     27 C           2.0836   -1.1946   -2.4784 C.3     1  LIG1       -0.0477
     28 H           4.2822    1.4202   -7.4087 H       1  LIG1        0.0618
     29 H           5.4262   -0.7597   -7.7506 H       1  LIG1        0.0618
     30 H           5.1957   -2.5445   -6.0415 H       1  LIG1        0.0618
     31 H           3.8584   -2.1858   -4.0385 H       1  LIG1        0.0621
     32 H           2.9080    1.7993   -5.4192 H       1  LIG1        0.0621
     33 H           0.3950    1.6978   -1.9863 H       1  LIG1        0.0621
     34 H          -1.8587    2.2798   -2.6860 H       1  LIG1        0.0618
     35 H          -2.7886    1.4132   -4.8196 H       1  LIG1        0.0618
     36 H          -1.4012   -0.0749   -6.2456 H       1  LIG1        0.0618
     37 H           0.8744   -0.6727   -5.5713 H       1  LIG1        0.0621
     38 H           0.9474    6.5705   -0.9293 H       1  LIG1        0.0653
     39 H           1.2154    5.5736    1.2508 H       1  LIG1        0.0293
     40 H           2.7304    4.6591    1.3703 H       1  LIG1        0.0293
     41 H           1.1735    3.8025    1.2411 H       1  LIG1        0.0293
     42 H           1.3677    6.4095   -4.6949 H       1  LIG1        0.0293
     43 H           1.5754    7.6108   -3.4073 H       1  LIG1        0.0293
     44 H           0.0256    6.7426   -3.5860 H       1  LIG1        0.0293
     45 H           2.3741    1.2862   -1.4799 H       1  LIG1        0.0810
     46 H           3.0066   -1.6536   -2.1130 H       1  LIG1        0.0243
     47 H           1.5635   -1.9600   -3.0690 H       1  LIG1        0.0243
     48 H           1.4589   -0.9900   -1.5998 H       1  LIG1        0.0243
@<TRIPOS>BOND
     1     1     2   ar
     2     2     3   ar
     3     3     4   ar
     4     4     5   ar
     5     5     6   ar
     6     5    22    1
     7     6     1   ar
     8     7     8   ar
     9     8     9   ar
    10     9    10   ar
    11    10    11   ar
    12    11    26   ar
    13    12    13   ar
    14    13    14   ar
    15    14    15   ar
    16    15    16   ar
    17    15    19    1
    18    16    17   ar
    19    17    12   ar
    20    17    18    1
    21    20    21    1
    22    20    13    1
    23    21    23    1
    24    21    22    1
    25    22    27    1
    26    22    26    1
    27    23    25   ar
    28    23    24   ar
    29    26     7   ar
    30     1    28    1
    31     2    29    1
    32     3    30    1
    33     4    31    1
    34     6    32    1
    35     7    33    1
    36     8    34    1
    37     9    35    1
    38    10    36    1
    39    11    37    1
    40    16    38    1
    41    18    39    1
    42    18    40    1
    43    18    41    1
    44    19    42    1
    45    19    43    1
    46    19    44    1
    47    21    45    1
    48    27    46    1
    49    27    47    1
    50    27    48    1
@<TRIPOS>MOLECULE
*****
 48 50 0 0 0
SMALL
GASTEIGER

@<TRIPOS>ATOM
      1 C           4.1395    0.6989   -6.6905 C.ar    1  LIG1       -0.0615
      2 C           4.7414   -0.5324   -6.9294 C.ar    1  LIG1       -0.0617
      3 C           4.6064   -1.5546   -5.9960 C.ar    1  LIG1       -0.0615
      4 C           3.8657   -1.3496   -4.8264 C.ar    1  LIG1       -0.0576
      5 C           3.2376   -0.1209   -4.5624 C.ar    1  LIG1       -0.0332
      6 C           3.3975    0.9001   -5.5241 C.ar    1  LIG1       -0.0576
      7 C           0.1054    1.3839   -2.8850 C.ar    1  LIG1       -0.0576
      8 C          -1.1986    1.7314   -3.2571 C.ar    1  LIG1       -0.0615
      9 C          -1.7411    1.2540   -4.4453 C.ar    1  LIG1       -0.0617
     10 C          -0.9847    0.4161   -5.2554 C.ar    1  LIG1       -0.0615
     11 C           0.3175    0.0700   -4.8821 C.ar    1  LIG1       -0.0576
     12 N           2.3271    4.4066   -3.4236 N.ar    1  LIG1       -0.2002
     13 C           2.6750    3.4968   -2.4969 C.ar    1  LIG1        0.3190
     14 N           2.4150    3.5985   -1.1864 N.ar    1  LIG1       -0.2002
     15 C           1.7886    4.7114   -0.7724 C.ar    1  LIG1        0.0453
     16 C           1.3737    5.6939   -1.6491 C.ar    1  LIG1       -0.0193
     17 C           1.6653    5.4931   -2.9840 C.ar    1  LIG1        0.0453
     18 C           1.2243    6.4718   -4.0269 C.3     1  LIG1       -0.0221
     19 C           1.5576    4.8550    0.6998 C.3     1  LIG1       -0.0221
     20 O           3.3341    2.4020   -2.9937 O.3     1  LIG1       -0.4519
     21 C           3.0895    1.1466   -2.3090 C.3     1  LIG1        0.1554
     22 C           2.3714    0.1259   -3.2861 C.3     1  LIG1        0.0601
     23 C           4.4305    0.7105   -1.6389 C.2     1  LIG1        0.0833
     24 O           4.9921   -0.3344   -2.0741 O.co2   1  LIG1       -0.5460
     25 O           4.7963    1.4177   -0.6504 O.co2   1  LIG1       -0.5460
     26 C           0.9113    0.5718   -3.7023 C.ar    1  LIG1       -0.0332
     27 C           2.0817   -1.1817   -2.4832 C.3     1  LIG1       -0.0477
     28 H           4.2550    1.5124   -7.4001 H       1  LIG1        0.0618
     29 H           5.3323   -0.6873   -7.8265 H       1  LIG1        0.0618
     30 H           5.0977   -2.5101   -6.1560 H       1  LIG1        0.0618
     31 H           3.8277   -2.1594   -4.1033 H       1  LIG1        0.0621
     32 H           2.9374    1.8738   -5.3659 H       1  LIG1        0.0621
     33 H           0.4668    1.7585   -1.9323 H       1  LIG1        0.0621
     34 H          -1.7859    2.3734   -2.6072 H       1  LIG1        0.0618
     35 H          -2.7518    1.5255   -4.7323 H       1  LIG1        0.0618
     36 H          -1.4005    0.0243   -6.1787 H       1  LIG1        0.0618
     37 H           0.8719   -0.6051   -5.5313 H       1  LIG1        0.0621
     38 H           0.8529    6.5762   -1.3032 H       1  LIG1        0.0653
     39 H           0.8308    7.3916   -3.5804 H       1  LIG1        0.0293
     40 H           0.4371    6.0253   -4.6440 H       1  LIG1        0.0293
     41 H           2.0680    6.7428   -4.6704 H       1  LIG1        0.0293
     42 H           1.9565    3.9926    1.2450 H       1  LIG1        0.0293
     43 H           0.4858    4.9265    0.9113 H       1  LIG1        0.0293
     44 H           2.0587    5.7536    1.0750 H       1  LIG1        0.0293
     45 H           2.4285    1.2823   -1.4430 H       1  LIG1        0.0810
     46 H           2.9829   -1.6671   -2.1015 H       1  LIG1        0.0243
     47 H           1.5577   -1.9264   -3.0958 H       1  LIG1        0.0243
     48 H           1.4449   -0.9786   -1.6125 H       1  LIG1        0.0243
@<TRIPOS>BOND
     1     1     2   ar
     2     2     3   ar
     3     3     4   ar
     4     4     5   ar
     5     5     6   ar
     6     5    22    1
     7     6     1   ar
     8     7     8   ar
     9     8     9   ar
    10     9    10   ar
    11    10    11   ar
    12    11    26   ar
    13    12    13   ar
    14    13    14   ar
    15    14    15   ar
    16    15    16   ar
    17    15    19    1
    18    16    17   ar
    19    17    12   ar
    20    17    18    1
    21    20    21    1
    22    20    13    1
    23    21    23    1
    24    21    22    1
    25    22    27    1
    26    22    26    1
    27    23    25   ar
    28    23    24   ar
    29    26     7   ar
    30     1    28    1
    31     2    29    1
    32     3    30    1
    33     4    31    1
    34     6    32    1
    35     7    33    1
    36     8    34    1
    37     9    35    1
    38    10    36    1
    39    11    37    1
    40    16    38    1
    41    18    39    1
    42    18    40    1
    43    18    41    1
    44    19    42    1
    45    19    43    1
    46    19    44    1
    47    21    45    1
    48    27    46    1
    49    27    47    1
    50    27    48    1
@<TRIPOS>MOLECULE
*****
 48 50 0 0 0
SMALL
GASTEIGER

@<TRIPOS>ATOM
      1 C           3.6894    0.3842   -6.7979 C.ar    1  LIG1       -0.0615
      2 C           4.6427   -0.6276   -6.8274 C.ar    1  LIG1       -0.0617
      3 C           4.8341   -1.4239   -5.7029 C.ar    1  LIG1       -0.0615
      4 C           4.0646   -1.2160   -4.5532 C.ar    1  LIG1       -0.0576
      5 C           3.0816   -0.2091   -4.4995 C.ar    1  LIG1       -0.0332
      6 C           2.9258    0.5965   -5.6458 C.ar    1  LIG1       -0.0576
      7 C          -0.1142   -0.4087   -4.0913 C.ar    1  LIG1       -0.0576
      8 C          -1.4022   -0.0298   -4.4849 C.ar    1  LIG1       -0.0615
      9 C          -1.7928    1.3014   -4.4043 C.ar    1  LIG1       -0.0617
     10 C          -0.8949    2.2516   -3.9323 C.ar    1  LIG1       -0.0615
     11 C           0.3906    1.8710   -3.5312 C.ar    1  LIG1       -0.0576
     12 N           5.3334    2.1105   -3.5866 N.ar    1  LIG1       -0.2002
     13 C           5.4455    1.3932   -2.4576 C.ar    1  LIG1        0.3190
     14 N           6.5911    1.2019   -1.7833 N.ar    1  LIG1       -0.2002
     15 C           7.6793    1.8392   -2.2525 C.ar    1  LIG1        0.0453
     16 C           7.6522    2.6177   -3.3940 C.ar    1  LIG1       -0.0193
     17 C           6.4371    2.7268   -4.0370 C.ar    1  LIG1        0.0453
     18 C           6.2888    3.5057   -5.3058 C.3     1  LIG1       -0.0221
     19 C           8.9559    1.6641   -1.4885 C.3     1  LIG1       -0.0221
     20 O           4.3852    0.6324   -2.0263 O.3     1  LIG1       -0.4519
     21 C           3.0752    1.1590   -2.3772 C.3     1  LIG1        0.1554
     22 C           2.2585    0.0814   -3.1871 C.3     1  LIG1        0.0601
     23 C           2.4291    1.6388   -1.0453 C.2     1  LIG1        0.0833
     24 O           2.3097    2.8999   -0.9402 O.co2   1  LIG1       -0.5460
     25 O           2.1021    0.7534   -0.2060 O.co2   1  LIG1       -0.5460
     26 C           0.8115    0.5298   -3.5871 C.ar    1  LIG1       -0.0332
     27 C           2.1297   -1.2270   -2.3451 C.3     1  LIG1       -0.0477
     28 H           3.5462    1.0270   -7.6609 H       1  LIG1        0.0618
     29 H           5.2482   -0.7817   -7.7145 H       1  LIG1        0.0618
     30 H           5.5977   -2.1960   -5.7037 H       1  LIG1        0.0618
     31 H           4.2794   -1.8268   -3.6804 H       1  LIG1        0.0621
     32 H           2.2177    1.4213   -5.6469 H       1  LIG1        0.0621
     33 H           0.1630   -1.4552   -4.1885 H       1  LIG1        0.0621
     34 H          -2.0949   -0.7799   -4.8520 H       1  LIG1        0.0618
     35 H          -2.7922    1.5997   -4.7041 H       1  LIG1        0.0618
     36 H          -1.1850    3.2968   -3.8611 H       1  LIG1        0.0618
     37 H           1.0494    2.6596   -3.1746 H       1  LIG1        0.0621
     38 H           8.5400    3.1126   -3.7636 H       1  LIG1        0.0653
     39 H           7.1772    4.1087   -5.5178 H       1  LIG1        0.0293
     40 H           5.4310    4.1820   -5.2320 H       1  LIG1        0.0293
     41 H           6.1268    2.8207   -6.1441 H       1  LIG1        0.0293
     42 H           8.8017    1.0333   -0.6075 H       1  LIG1        0.0293
     43 H           9.3301    2.6356   -1.1503 H       1  LIG1        0.0293
     44 H           9.7122    1.1883   -2.1208 H       1  LIG1        0.0293
     45 H           3.1622    2.0565   -3.0031 H       1  LIG1        0.0810
     46 H           3.0575   -1.4796   -1.8200 H       1  LIG1        0.0243
     47 H           1.8795   -2.0963   -2.9654 H       1  LIG1        0.0243
     48 H           1.3405   -1.1489   -1.5893 H       1  LIG1        0.0243
@<TRIPOS>BOND
     1     1     2   ar
     2     2     3   ar
     3     3     4   ar
     4     4     5   ar
     5     5     6   ar
     6     5    22    1
     7     6     1   ar
     8     7     8   ar
     9     8     9   ar
    10     9    10   ar
    11    10    11   ar
    12    11    26   ar
    13    12    13   ar
    14    13    14   ar
    15    14    15   ar
    16    15    16   ar
    17    15    19    1
    18    16    17   ar
    19    17    12   ar
    20    17    18    1
    21    20    21    1
    22    20    13    1
    23    21    23    1
    24    21    22    1
    25    22    27    1
    26    22    26    1
    27    23    25   ar
    28    23    24   ar
    29    26     7   ar
    30     1    28    1
    31     2    29    1
    32     3    30    1
    33     4    31    1
    34     6    32    1
    35     7    33    1
    36     8    34    1
    37     9    35    1
    38    10    36    1
    39    11    37    1
    40    16    38    1
    41    18    39    1
    42    18    40    1
    43    18    41    1
    44    19    42    1
    45    19    43    1
    46    19    44    1
    47    21    45    1
    48    27    46    1
    49    27    47    1
    50    27    48    1
@<TRIPOS>MOLECULE
*****
 48 50 0 0 0
SMALL
GASTEIGER

@<TRIPOS>ATOM
      1 C           4.0630    0.7017   -6.7055 C.ar    1  LIG1       -0.0615
      2 C           4.6924   -0.5155   -6.9393 C.ar    1  LIG1       -0.0617
      3 C           4.6017   -1.5288   -5.9909 C.ar    1  LIG1       -0.0615
      4 C           3.8732   -1.3305   -4.8123 C.ar    1  LIG1       -0.0576
      5 C           3.2136   -0.1169   -4.5548 C.ar    1  LIG1       -0.0332
      6 C           3.3350    0.8975   -5.5287 C.ar    1  LIG1       -0.0576
      7 C           0.2841    0.1035   -4.8237 C.ar    1  LIG1       -0.0576
      8 C          -1.0212    0.4665   -5.1690 C.ar    1  LIG1       -0.0615
      9 C          -1.7547    1.3024   -4.3358 C.ar    1  LIG1       -0.0617
     10 C          -1.1869    1.7591   -3.1514 C.ar    1  LIG1       -0.0615
     11 C           0.1197    1.3940   -2.8071 C.ar    1  LIG1       -0.0576
     12 N           2.3720    4.4167   -3.4123 N.ar    1  LIG1       -0.2002
     13 C           2.6945    3.4923   -2.4907 C.ar    1  LIG1        0.3190
     14 N           2.4052    3.5794   -1.1841 N.ar    1  LIG1       -0.2002
     15 C           1.7800    4.6930   -0.7707 C.ar    1  LIG1        0.0453
     16 C           1.3910    5.6894   -1.6441 C.ar    1  LIG1       -0.0193
     17 C           1.7137    5.5044   -2.9749 C.ar    1  LIG1        0.0453
     18 C           1.2916    6.4948   -4.0163 C.3     1  LIG1       -0.0221
     19 C           1.5142    4.8212    0.6975 C.3     1  LIG1       -0.0221
     20 O           3.3373    2.3934   -2.9961 O.3     1  LIG1       -0.4519
     21 C           3.1170    1.1374   -2.3026 C.3     1  LIG1        0.1554
     22 C           2.3676    0.1248   -3.2633 C.3     1  LIG1        0.0601
     23 C           4.4820    0.7095   -1.6754 C.2     1  LIG1        0.0833
     24 O           4.9659    1.5174   -0.8234 O.co2   1  LIG1       -0.5460
     25 O           4.9475   -0.4204   -1.9985 O.co2   1  LIG1       -0.5460
     26 C           0.9040    0.5868   -3.6501 C.ar    1  LIG1       -0.0332
     27 C           2.0725   -1.1870   -2.4702 C.3     1  LIG1       -0.0477
     28 H           4.1446    1.5103   -7.4255 H       1  LIG1        0.0618
     29 H           5.2725   -0.6656   -7.8440 H       1  LIG1        0.0618
     30 H           5.1170   -2.4713   -6.1462 H       1  LIG1        0.0618
     31 H           3.8709   -2.1307   -4.0763 H       1  LIG1        0.0621
     32 H           2.8558    1.8619   -5.3711 H       1  LIG1        0.0621
     33 H           0.8202   -0.5701   -5.4896 H       1  LIG1        0.0621
     34 H          -1.4577    0.0893   -6.0890 H       1  LIG1        0.0618
     35 H          -2.7675    1.5874   -4.6015 H       1  LIG1        0.0618
     36 H          -1.7562    2.3982   -2.4830 H       1  LIG1        0.0618
     37 H           0.5018    1.7501   -1.8554 H       1  LIG1        0.0621
     38 H           0.8674    6.5703   -1.3004 H       1  LIG1        0.0653
     39 H           1.0329    7.4596   -3.5719 H       1  LIG1        0.0293
     40 H           0.4201    6.1130   -4.5548 H       1  LIG1        0.0293
     41 H           2.1038    6.6603   -4.7303 H       1  LIG1        0.0293
     42 H           1.9037    3.9544    1.2424 H       1  LIG1        0.0293
     43 H           0.4384    4.8866    0.8840 H       1  LIG1        0.0293
     44 H           2.0032    5.7168    1.0927 H       1  LIG1        0.0293
     45 H           2.4862    1.2702   -1.4144 H       1  LIG1        0.0810
     46 H           2.9680   -1.6938   -2.1045 H       1  LIG1        0.0243
     47 H           1.5311   -1.9181   -3.0849 H       1  LIG1        0.0243
     48 H           1.4497   -0.9848   -1.5892 H       1  LIG1        0.0243
@<TRIPOS>BOND
     1     1     2   ar
     2     2     3   ar
     3     3     4   ar
     4     4     5   ar
     5     5     6   ar
     6     5    22    1
     7     6     1   ar
     8     7     8   ar
     9     8     9   ar
    10     9    10   ar
    11    10    11   ar
    12    11    26   ar
    13    12    13   ar
    14    13    14   ar
    15    14    15   ar
    16    15    16   ar
    17    15    19    1
    18    16    17   ar
    19    17    12   ar
    20    17    18    1
    21    20    21    1
    22    20    13    1
    23    21    23    1
    24    21    22    1
    25    22    27    1
    26    22    26    1
    27    23    25   ar
    28    23    24   ar
    29    26     7   ar
    30     1    28    1
    31     2    29    1
    32     3    30    1
    33     4    31    1
    34     6    32    1
    35     7    33    1
    36     8    34    1
    37     9    35    1
    38    10    36    1
    39    11    37    1
    40    16    38    1
    41    18    39    1
    42    18    40    1
    43    18    41    1
    44    19    42    1
    45    19    43    1
    46    19    44    1
    47    21    45    1
    48    27    46    1
    49    27    47    1
    50    27    48    1
@<TRIPOS>MOLECULE
*****
 48 50 0 0 0
SMALL
GASTEIGER

@<TRIPOS>ATOM
      1 C           4.2113    0.6168   -6.6594 C.ar    1  LIG1       -0.0615
      2 C           4.8379   -0.6087   -6.8498 C.ar    1  LIG1       -0.0617
      3 C           4.6782   -1.6146   -5.9022 C.ar    1  LIG1       -0.0615
      4 C           3.8890   -1.3989   -4.7662 C.ar    1  LIG1       -0.0576
      5 C           3.2319   -0.1738   -4.5530 C.ar    1  LIG1       -0.0332
      6 C           3.4194    0.8289   -5.5279 C.ar    1  LIG1       -0.0576
      7 C          -0.0061    1.2415   -2.9608 C.ar    1  LIG1       -0.0576
      8 C          -1.3083    1.5602   -3.3592 C.ar    1  LIG1       -0.0615
      9 C          -1.7960    1.1067   -4.5788 C.ar    1  LIG1       -0.0617
     10 C          -0.9870    0.3199   -5.3911 C.ar    1  LIG1       -0.0615
     11 C           0.3143    0.0011   -4.9900 C.ar    1  LIG1       -0.0576
     12 N           2.7240    4.6917   -3.2091 N.ar    1  LIG1       -0.2002
     13 C           2.6219    3.5785   -2.4622 C.ar    1  LIG1        0.3190
     14 N           1.9988    3.5103   -1.2752 N.ar    1  LIG1       -0.2002
     15 C           1.4741    4.6518   -0.7965 C.ar    1  LIG1        0.0453
     16 C           1.5452    5.8467   -1.4855 C.ar    1  LIG1       -0.0193
     17 C           2.1930    5.8185   -2.7036 C.ar    1  LIG1        0.0453
     18 C           2.3145    7.0474   -3.5497 C.3     1  LIG1       -0.0221
     19 C           0.7621    4.5758    0.5189 C.3     1  LIG1       -0.0221
     20 O           3.0601    2.4448   -3.0911 O.3     1  LIG1       -0.4519
     21 C           2.9507    1.1902   -2.3792 C.3     1  LIG1        0.1554
     22 C           2.3115    0.0928   -3.3189 C.3     1  LIG1        0.0601
     23 C           4.3344    0.7915   -1.7955 C.2     1  LIG1        0.0833
     24 O           5.3638    1.3155   -2.3098 O.co2   1  LIG1       -0.5460
     25 O           4.2799   -0.0055   -0.8056 O.co2   1  LIG1       -0.5460
     26 C           0.8518    0.4818   -3.7782 C.ar    1  LIG1       -0.0332
     27 C           2.0641   -1.2008   -2.4850 C.3     1  LIG1       -0.0477
     28 H           4.3456    1.4210   -7.3763 H       1  LIG1        0.0618
     29 H           5.4656   -0.7709   -7.7196 H       1  LIG1        0.0618
     30 H           5.1840   -2.5672   -6.0299 H       1  LIG1        0.0618
     31 H           3.8191   -2.2081   -4.0460 H       1  LIG1        0.0621
     32 H           2.9448    1.8012   -5.4086 H       1  LIG1        0.0621
     33 H           0.3174    1.5967   -1.9867 H       1  LIG1        0.0621
     34 H          -1.9338    2.1625   -2.7070 H       1  LIG1        0.0618
     35 H          -2.8057    1.3574   -4.8894 H       1  LIG1        0.0618
     36 H          -1.3617   -0.0504   -6.3404 H       1  LIG1        0.0618
     37 H           0.9105   -0.6311   -5.6443 H       1  LIG1        0.0621
     38 H           1.1083    6.7541   -1.0914 H       1  LIG1        0.0653
     39 H           1.8917    7.9263   -3.0531 H       1  LIG1        0.0293
     40 H           1.7833    6.9005   -4.4955 H       1  LIG1        0.0293
     41 H           3.3684    7.2508   -3.7631 H       1  LIG1        0.0293
     42 H           0.8358    3.5704    0.9456 H       1  LIG1        0.0293
     43 H          -0.2986    4.8114    0.3856 H       1  LIG1        0.0293
     44 H           1.2005    5.2816    1.2309 H       1  LIG1        0.0293
     45 H           2.3128    1.2861   -1.4930 H       1  LIG1        0.0810
     46 H           2.9885   -1.6519   -2.1133 H       1  LIG1        0.0243
     47 H           1.5514   -1.9713   -3.0755 H       1  LIG1        0.0243
     48 H           1.4337   -0.9974   -1.6103 H       1  LIG1        0.0243
@<TRIPOS>BOND
     1     1     2   ar
     2     2     3   ar
     3     3     4   ar
     4     4     5   ar
     5     5     6   ar
     6     5    22    1
     7     6     1   ar
     8     7     8   ar
     9     8     9   ar
    10     9    10   ar
    11    10    11   ar
    12    11    26   ar
    13    12    13   ar
    14    13    14   ar
    15    14    15   ar
    16    15    16   ar
    17    15    19    1
    18    16    17   ar
    19    17    12   ar
    20    17    18    1
    21    20    21    1
    22    20    13    1
    23    21    23    1
    24    21    22    1
    25    22    27    1
    26    22    26    1
    27    23    25   ar
    28    23    24   ar
    29    26     7   ar
    30     1    28    1
    31     2    29    1
    32     3    30    1
    33     4    31    1
    34     6    32    1
    35     7    33    1
    36     8    34    1
    37     9    35    1
    38    10    36    1
    39    11    37    1
    40    16    38    1
    41    18    39    1
    42    18    40    1
    43    18    41    1
    44    19    42    1
    45    19    43    1
    46    19    44    1
    47    21    45    1
    48    27    46    1
    49    27    47    1
    50    27    48    1
@<TRIPOS>MOLECULE
*****
 48 50 0 0 0
SMALL
GASTEIGER

@<TRIPOS>ATOM
      1 C           3.6527   -1.5396   -6.5817 C.ar    1  LIG1       -0.0615
      2 C           4.6313   -0.6424   -6.9941 C.ar    1  LIG1       -0.0617
      3 C           4.8852    0.4914   -6.2324 C.ar    1  LIG1       -0.0615
      4 C           4.1734    0.7196   -5.0502 C.ar    1  LIG1       -0.0576
      5 C           3.1956   -0.1836   -4.5886 C.ar    1  LIG1       -0.0332
      6 C           2.9364   -1.3071   -5.4023 C.ar    1  LIG1       -0.0576
      7 C           0.6332    1.2337   -4.7716 C.ar    1  LIG1       -0.0576
      8 C          -0.6727    1.6134   -5.0970 C.ar    1  LIG1       -0.0615
      9 C          -1.7285    1.2679   -4.2610 C.ar    1  LIG1       -0.0617
     10 C          -1.4748    0.5529   -3.0954 C.ar    1  LIG1       -0.0615
     11 C          -0.1691    0.1656   -2.7759 C.ar    1  LIG1       -0.0576
     12 N           5.0601    2.9098   -2.0007 N.ar    1  LIG1       -0.2002
     13 C           5.3134    1.6185   -1.7487 C.ar    1  LIG1        0.3190
     14 N           6.5222    1.1226   -1.4362 N.ar    1  LIG1       -0.2002
     15 C           7.5268    2.0082   -1.3127 C.ar    1  LIG1        0.0453
     16 C           7.3480    3.3643   -1.5051 C.ar    1  LIG1       -0.0193
     17 C           6.0774    3.7753   -1.8527 C.ar    1  LIG1        0.0453
     18 C           5.7579    5.2198   -2.0788 C.3     1  LIG1       -0.0221
     19 C           8.8791    1.4616   -0.9733 C.3     1  LIG1       -0.0221
     20 O           4.3498    0.6661   -1.9615 O.3     1  LIG1       -0.4519
     21 C           3.0335    1.1547   -2.3436 C.3     1  LIG1        0.1554
     22 C           2.3698    0.0544   -3.2564 C.3     1  LIG1        0.0601
     23 C           2.2500    1.5278   -1.0537 C.2     1  LIG1        0.0833
     24 O           2.2166    0.6606   -0.1303 O.co2   1  LIG1       -0.5460
     25 O           1.7168    2.6788   -1.0484 O.co2   1  LIG1       -0.5460
     26 C           0.9149    0.4774   -3.6166 C.ar    1  LIG1       -0.0332
     27 C           2.3904   -1.3174   -2.5059 C.3     1  LIG1       -0.0477
     28 H           3.4387   -2.4235   -7.1750 H       1  LIG1        0.0618
     29 H           5.1897   -0.8214   -7.9074 H       1  LIG1        0.0618
     30 H           5.6386    1.2077   -6.5479 H       1  LIG1        0.0618
     31 H           4.4066    1.6291   -4.5048 H       1  LIG1        0.0621
     32 H           2.1599   -2.0166   -5.1291 H       1  LIG1        0.0621
     33 H           1.4341    1.5490   -5.4355 H       1  LIG1        0.0621
     34 H          -0.8551    2.1960   -5.9947 H       1  LIG1        0.0618
     35 H          -2.7400    1.5803   -4.4993 H       1  LIG1        0.0618
     36 H          -2.2838    0.3165   -2.4105 H       1  LIG1        0.0618
     37 H          -0.0074   -0.3456   -1.8284 H       1  LIG1        0.0621
     38 H           8.1643    4.0649   -1.3945 H       1  LIG1        0.0653
     39 H           6.6575    5.8427   -2.0515 H       1  LIG1        0.0293
     40 H           5.0695    5.5739   -1.3052 H       1  LIG1        0.0293
     41 H           5.2873    5.3491   -3.0588 H       1  LIG1        0.0293
     42 H           8.8390    0.3760   -0.8366 H       1  LIG1        0.0293
     43 H           9.2484    1.9086   -0.0454 H       1  LIG1        0.0293
     44 H           9.5852    1.6754   -1.7820 H       1  LIG1        0.0293
     45 H           3.1022    2.0773   -2.9367 H       1  LIG1        0.0810
     46 H           3.4111   -1.7064   -2.4064 H       1  LIG1        0.0243
     47 H           1.7982   -2.0820   -3.0217 H       1  LIG1        0.0243
     48 H           1.9718   -1.2649   -1.4990 H       1  LIG1        0.0243
@<TRIPOS>BOND
     1     1     2   ar
     2     2     3   ar
     3     3     4   ar
     4     4     5   ar
     5     5     6   ar
     6     5    22    1
     7     6     1   ar
     8     7     8   ar
     9     8     9   ar
    10     9    10   ar
    11    10    11   ar
    12    11    26   ar
    13    12    13   ar
    14    13    14   ar
    15    14    15   ar
    16    15    16   ar
    17    15    19    1
    18    16    17   ar
    19    17    12   ar
    20    17    18    1
    21    20    21    1
    22    20    13    1
    23    21    23    1
    24    21    22    1
    25    22    27    1
    26    22    26    1
    27    23    25   ar
    28    23    24   ar
    29    26     7   ar
    30     1    28    1
    31     2    29    1
    32     3    30    1
    33     4    31    1
    34     6    32    1
    35     7    33    1
    36     8    34    1
    37     9    35    1
    38    10    36    1
    39    11    37    1
    40    16    38    1
    41    18    39    1
    42    18    40    1
    43    18    41    1
    44    19    42    1
    45    19    43    1
    46    19    44    1
    47    21    45    1
    48    27    46    1
    49    27    47    1
    50    27    48    1
@<TRIPOS>MOLECULE
*****
 48 50 0 0 0
SMALL
GASTEIGER

@<TRIPOS>ATOM
      1 C           3.7034    0.3519   -6.7802 C.ar    1  LIG1       -0.0615
      2 C           4.6316   -0.6836   -6.8197 C.ar    1  LIG1       -0.0617
      3 C           4.8077   -1.4927   -5.7011 C.ar    1  LIG1       -0.0615
      4 C           4.0479   -1.2748   -4.5473 C.ar    1  LIG1       -0.0576
      5 C           3.0890   -0.2463   -4.4855 C.ar    1  LIG1       -0.0332
      6 C           2.9492    0.5729   -5.6247 C.ar    1  LIG1       -0.0576
      7 C           0.3318    1.7792   -3.4948 C.ar    1  LIG1       -0.0576
      8 C          -0.9641    2.1151   -3.9026 C.ar    1  LIG1       -0.0615
      9 C          -1.8121    1.1428   -4.4204 C.ar    1  LIG1       -0.0617
     10 C          -1.3613   -0.1669   -4.5392 C.ar    1  LIG1       -0.0615
     11 C          -0.0645   -0.5012   -4.1349 C.ar    1  LIG1       -0.0576
     12 N           5.3272    2.1583   -3.5950 N.ar    1  LIG1       -0.2002
     13 C           5.4452    1.4253   -2.4755 C.ar    1  LIG1        0.3190
     14 N           6.5938    1.2264   -1.8092 N.ar    1  LIG1       -0.2002
     15 C           7.6812    1.8669   -2.2754 C.ar    1  LIG1        0.0453
     16 C           7.6492    2.6585   -3.4076 C.ar    1  LIG1       -0.0193
     17 C           6.4296    2.7818   -4.0406 C.ar    1  LIG1        0.0453
     18 C           6.2829    3.5687   -5.3042 C.3     1  LIG1       -0.0221
     19 C           8.9611    1.6775   -1.5216 C.3     1  LIG1       -0.0221
     20 O           4.3923    0.6517   -2.0511 O.3     1  LIG1       -0.4519
     21 C           3.0733    1.1601   -2.3961 C.3     1  LIG1        0.1554
     22 C           2.2669    0.0551   -3.1755 C.3     1  LIG1        0.0601
     23 C           2.4422    1.6580   -1.0642 C.2     1  LIG1        0.0833
     24 O           2.1477    0.7850   -0.1975 O.co2   1  LIG1       -0.5460
     25 O           2.2949    2.9172   -0.9833 O.co2   1  LIG1       -0.5460
     26 C           0.8108    0.4602   -3.5858 C.ar    1  LIG1       -0.0332
     27 C           2.1558   -1.2335   -2.3025 C.3     1  LIG1       -0.0477
     28 H           3.5733    1.0038   -7.6383 H       1  LIG1        0.0618
     29 H           5.2298   -0.8465   -7.7110 H       1  LIG1        0.0618
     30 H           5.5516   -2.2831   -5.7115 H       1  LIG1        0.0618
     31 H           4.2490   -1.8977   -3.6805 H       1  LIG1        0.0621
     32 H           2.2595    1.4134   -5.6143 H       1  LIG1        0.0621
     33 H           0.9509    2.5843   -3.1052 H       1  LIG1        0.0621
     34 H          -1.3019    3.1420   -3.8023 H       1  LIG1        0.0618
     35 H          -2.8189    1.4062   -4.7279 H       1  LIG1        0.0618
     36 H          -2.0137   -0.9343   -4.9456 H       1  LIG1        0.0618
     37 H           0.2625   -1.5294   -4.2624 H       1  LIG1        0.0621
     38 H           8.5360    3.1538   -3.7781 H       1  LIG1        0.0653
     39 H           7.1065    4.2765   -5.4340 H       1  LIG1        0.0293
     40 H           5.3494    4.1397   -5.2867 H       1  LIG1        0.0293
     41 H           6.2649    2.8902   -6.1627 H       1  LIG1        0.0293
     42 H           8.8075    1.0441   -0.6416 H       1  LIG1        0.0293
     43 H           9.3465    2.6439   -1.1809 H       1  LIG1        0.0293
     44 H           9.7089    1.1976   -2.1607 H       1  LIG1        0.0293
     45 H           3.1419    2.0464   -3.0405 H       1  LIG1        0.0810
     46 H           3.0914   -1.4687   -1.7827 H       1  LIG1        0.0243
     47 H           1.9015   -2.1196   -2.8975 H       1  LIG1        0.0243
     48 H           1.3740   -1.1414   -1.5397 H       1  LIG1        0.0243
@<TRIPOS>BOND
     1     1     2   ar
     2     2     3   ar
     3     3     4   ar
     4     4     5   ar
     5     5     6   ar
     6     5    22    1
     7     6     1   ar
     8     7     8   ar
     9     8     9   ar
    10     9    10   ar
    11    10    11   ar
    12    11    26   ar
    13    12    13   ar
    14    13    14   ar
    15    14    15   ar
    16    15    16   ar
    17    15    19    1
    18    16    17   ar
    19    17    12   ar
    20    17    18    1
    21    20    21    1
    22    20    13    1
    23    21    23    1
    24    21    22    1
    25    22    27    1
    26    22    26    1
    27    23    25   ar
    28    23    24   ar
    29    26     7   ar
    30     1    28    1
    31     2    29    1
    32     3    30    1
    33     4    31    1
    34     6    32    1
    35     7    33    1
    36     8    34    1
    37     9    35    1
    38    10    36    1
    39    11    37    1
    40    16    38    1
    41    18    39    1
    42    18    40    1
    43    18    41    1
    44    19    42    1
    45    19    43    1
    46    19    44    1
    47    21    45    1
    48    27    46    1
    49    27    47    1
    50    27    48    1
@<TRIPOS>MOLECULE
*****
 48 50 0 0 0
SMALL
GASTEIGER

@<TRIPOS>ATOM
      1 C           4.7682    0.6759   -6.2290 C.ar    1  LIG1       -0.0615
      2 C           4.7758   -0.5690   -6.8401 C.ar    1  LIG1       -0.0617
      3 C           3.9764   -1.5867   -6.3302 C.ar    1  LIG1       -0.0615
      4 C           3.1923   -1.3693   -5.1912 C.ar    1  LIG1       -0.0576
      5 C           3.2002   -0.1332   -4.5189 C.ar    1  LIG1       -0.0332
      6 C           3.9775    0.8926   -5.0982 C.ar    1  LIG1       -0.0576
      7 C          -0.2362    0.3308   -2.8644 C.ar    1  LIG1       -0.0576
      8 C          -1.5258    0.6820   -3.2863 C.ar    1  LIG1       -0.0615
      9 C          -1.7149    1.3312   -4.5005 C.ar    1  LIG1       -0.0617
     10 C          -0.6127    1.6512   -5.2800 C.ar    1  LIG1       -0.0615
     11 C           0.6769    1.2989   -4.8543 C.ar    1  LIG1       -0.0576
     12 N           6.5250    0.4912   -2.5872 N.ar    1  LIG1       -0.2002
     13 C           5.4642    1.2694   -2.3069 C.ar    1  LIG1        0.3190
     14 N           5.4273    2.6020   -2.4618 N.ar    1  LIG1       -0.2002
     15 C           6.5354    3.1845   -2.9535 C.ar    1  LIG1        0.0453
     16 C           7.6642    2.4671   -3.2961 C.ar    1  LIG1       -0.0193
     17 C           7.6131    1.1019   -3.0931 C.ar    1  LIG1        0.0453
     18 C           8.7723    0.2250   -3.4558 C.3     1  LIG1       -0.0221
     19 C           6.5013    4.6713   -3.1328 C.3     1  LIG1       -0.0221
     20 O           4.3506    0.5964   -1.8727 O.3     1  LIG1       -0.4519
     21 C           3.0631    1.1585   -2.2708 C.3     1  LIG1        0.1554
     22 C           2.3290    0.1258   -3.2199 C.3     1  LIG1        0.0601
     23 C           2.2756    1.4989   -0.9740 C.2     1  LIG1        0.0833
     24 O           2.4049    0.7068    0.0050 O.co2   1  LIG1       -0.5460
     25 O           1.5780    2.5579   -1.0266 O.co2   1  LIG1       -0.5460
     26 C           0.8992    0.6000   -3.6516 C.ar    1  LIG1       -0.0332
     27 C           2.2206   -1.2329   -2.4470 C.3     1  LIG1       -0.0477
     28 H           5.3745    1.4881   -6.6189 H       1  LIG1        0.0618
     29 H           5.3926   -0.7432   -7.7152 H       1  LIG1        0.0618
     30 H           3.9600   -2.5591   -6.8138 H       1  LIG1        0.0618
     31 H           2.5737   -2.1910   -4.8443 H       1  LIG1        0.0621
     32 H           3.9770    1.8949   -4.6780 H       1  LIG1        0.0621
     33 H          -0.1391   -0.1400   -1.8876 H       1  LIG1        0.0621
     34 H          -2.3761    0.4576   -2.6491 H       1  LIG1        0.0618
     35 H          -2.7132    1.6062   -4.8247 H       1  LIG1        0.0618
     36 H          -0.7404    2.1792   -6.2199 H       1  LIG1        0.0618
     37 H           1.4996    1.5823   -5.5009 H       1  LIG1        0.0621
     38 H           8.5424    2.9514   -3.7019 H       1  LIG1        0.0653
     39 H           9.6259    0.8095   -3.8153 H       1  LIG1        0.0293
     40 H           8.4803   -0.4714   -4.2485 H       1  LIG1        0.0293
     41 H           9.0986   -0.3472   -2.5819 H       1  LIG1        0.0293
     42 H           5.5248    5.0767   -2.8496 H       1  LIG1        0.0293
     43 H           6.6861    4.9305   -4.1802 H       1  LIG1        0.0293
     44 H           7.2634    5.1434   -2.5054 H       1  LIG1        0.0293
     45 H           3.1714    2.1180   -2.7896 H       1  LIG1        0.0810
     46 H           3.2067   -1.6722   -2.2581 H       1  LIG1        0.0243
     47 H           1.6225   -1.9737   -2.9898 H       1  LIG1        0.0243
     48 H           1.7318   -1.1310   -1.4742 H       1  LIG1        0.0243
@<TRIPOS>BOND
     1     1     2   ar
     2     2     3   ar
     3     3     4   ar
     4     4     5   ar
     5     5     6   ar
     6     5    22    1
     7     6     1   ar
     8     7     8   ar
     9     8     9   ar
    10     9    10   ar
    11    10    11   ar
    12    11    26   ar
    13    12    13   ar
    14    13    14   ar
    15    14    15   ar
    16    15    16   ar
    17    15    19    1
    18    16    17   ar
    19    17    12   ar
    20    17    18    1
    21    20    21    1
    22    20    13    1
    23    21    23    1
    24    21    22    1
    25    22    27    1
    26    22    26    1
    27    23    25   ar
    28    23    24   ar
    29    26     7   ar
    30     1    28    1
    31     2    29    1
    32     3    30    1
    33     4    31    1
    34     6    32    1
    35     7    33    1
    36     8    34    1
    37     9    35    1
    38    10    36    1
    39    11    37    1
    40    16    38    1
    41    18    39    1
    42    18    40    1
    43    18    41    1
    44    19    42    1
    45    19    43    1
    46    19    44    1
    47    21    45    1
    48    27    46    1
    49    27    47    1
    50    27    48    1
@<TRIPOS>MOLECULE
*****
 48 50 0 0 0
SMALL
GASTEIGER

@<TRIPOS>ATOM
      1 C           4.0153    0.6614   -6.5910 C.ar    1  LIG1       -0.0615
      2 C           4.6639   -0.5470   -6.8172 C.ar    1  LIG1       -0.0617
      3 C           4.5554   -1.5718   -5.8820 C.ar    1  LIG1       -0.0615
      4 C           3.7954   -1.3929   -4.7202 C.ar    1  LIG1       -0.0576
      5 C           3.1184   -0.1865   -4.4727 C.ar    1  LIG1       -0.0332
      6 C           3.2524    0.8384   -5.4338 C.ar    1  LIG1       -0.0576
      7 C           0.4120    1.8573   -3.5413 C.ar    1  LIG1       -0.0576
      8 C          -0.8639    2.2331   -3.9788 C.ar    1  LIG1       -0.0615
      9 C          -1.7304    1.2875   -4.5159 C.ar    1  LIG1       -0.0617
     10 C          -1.3162   -0.0340   -4.6280 C.ar    1  LIG1       -0.0615
     11 C          -0.0398   -0.4062   -4.1960 C.ar    1  LIG1       -0.0576
     12 N           6.5586    0.4536   -2.6678 N.ar    1  LIG1       -0.2002
     13 C           5.4806    1.2193   -2.4273 C.ar    1  LIG1        0.3190
     14 N           5.4353    2.5519   -2.5677 N.ar    1  LIG1       -0.2002
     15 C           6.5513    3.1545   -3.0093 C.ar    1  LIG1        0.0453
     16 C           7.7006    2.4510   -3.3116 C.ar    1  LIG1       -0.0193
     17 C           7.6577    1.0839   -3.1181 C.ar    1  LIG1        0.0453
     18 C           8.8385    0.2191   -3.4315 C.3     1  LIG1       -0.0221
     19 C           6.5042    4.6427   -3.1688 C.3     1  LIG1       -0.0221
     20 O           4.3835    0.5346   -1.9729 O.3     1  LIG1       -0.4519
     21 C           3.0982    1.1252   -2.3193 C.3     1  LIG1        0.1554
     22 C           2.2783    0.0742   -3.1674 C.3     1  LIG1        0.0601
     23 C           2.4344    1.5813   -0.9883 C.2     1  LIG1        0.0833
     24 O           2.1103    2.8091   -0.9406 O.co2   1  LIG1       -0.5460
     25 O           2.2872    0.7054   -0.0880 O.co2   1  LIG1       -0.5460
     26 C           0.8507    0.5253   -3.6193 C.ar    1  LIG1       -0.0332
     27 C           2.1128   -1.2285   -2.3229 C.3     1  LIG1       -0.0477
     28 H           4.1048    1.4747   -7.3040 H       1  LIG1        0.0618
     29 H           5.2632   -0.6854   -7.7117 H       1  LIG1        0.0618
     30 H           5.0748   -2.5127   -6.0422 H       1  LIG1        0.0618
     31 H           3.7715   -2.2070   -4.0025 H       1  LIG1        0.0621
     32 H           2.7697    1.8005   -5.2751 H       1  LIG1        0.0621
     33 H           1.0475    2.6414   -3.1354 H       1  LIG1        0.0621
     34 H          -1.1714    3.2711   -3.8843 H       1  LIG1        0.0618
     35 H          -2.7218    1.5825   -4.8436 H       1  LIG1        0.0618
     36 H          -1.9815   -0.7801   -5.0501 H       1  LIG1        0.0618
     37 H           0.2570   -1.4432   -4.3226 H       1  LIG1        0.0621
     38 H           8.5882    2.9493   -3.6763 H       1  LIG1        0.0653
     39 H           9.7287    0.8141   -3.6577 H       1  LIG1        0.0293
     40 H           8.6157   -0.4116   -4.2976 H       1  LIG1        0.0293
     41 H           9.0699   -0.4230   -2.5758 H       1  LIG1        0.0293
     42 H           5.5253    5.0368   -2.8770 H       1  LIG1        0.0293
     43 H           6.6842    4.9170   -4.2129 H       1  LIG1        0.0293
     44 H           7.2629    5.1152   -2.5370 H       1  LIG1        0.0293
     45 H           3.2294    2.0277   -2.9295 H       1  LIG1        0.0810
     46 H           3.0527   -1.5423   -1.8560 H       1  LIG1        0.0243
     47 H           1.7680   -2.0808   -2.9185 H       1  LIG1        0.0243
     48 H           1.3727   -1.0987   -1.5260 H       1  LIG1        0.0243
@<TRIPOS>BOND
     1     1     2   ar
     2     2     3   ar
     3     3     4   ar
     4     4     5   ar
     5     5     6   ar
     6     5    22    1
     7     6     1   ar
     8     7     8   ar
     9     8     9   ar
    10     9    10   ar
    11    10    11   ar
    12    11    26   ar
    13    12    13   ar
    14    13    14   ar
    15    14    15   ar
    16    15    16   ar
    17    15    19    1
    18    16    17   ar
    19    17    12   ar
    20    17    18    1
    21    20    21    1
    22    20    13    1
    23    21    23    1
    24    21    22    1
    25    22    27    1
    26    22    26    1
    27    23    25   ar
    28    23    24   ar
    29    26     7   ar
    30     1    28    1
    31     2    29    1
    32     3    30    1
    33     4    31    1
    34     6    32    1
    35     7    33    1
    36     8    34    1
    37     9    35    1
    38    10    36    1
    39    11    37    1
    40    16    38    1
    41    18    39    1
    42    18    40    1
    43    18    41    1
    44    19    42    1
    45    19    43    1
    46    19    44    1
    47    21    45    1
    48    27    46    1
    49    27    47    1
    50    27    48    1
@<TRIPOS>MOLECULE
*****
 48 50 0 0 0
SMALL
GASTEIGER

@<TRIPOS>ATOM
      1 C           4.2187    0.6682   -6.6539 C.ar    1  LIG1       -0.0615
      2 C           4.7758   -0.5811   -6.8936 C.ar    1  LIG1       -0.0617
      3 C           4.5767   -1.6089   -5.9764 C.ar    1  LIG1       -0.0615
      4 C           3.8254   -1.3860   -4.8162 C.ar    1  LIG1       -0.0576
      5 C           3.2460   -0.1331   -4.5486 C.ar    1  LIG1       -0.0332
      6 C           3.4597    0.8865   -5.5011 C.ar    1  LIG1       -0.0576
      7 C           0.0919    1.3714   -2.8960 C.ar    1  LIG1       -0.0576
      8 C          -1.2123    1.7094   -3.2738 C.ar    1  LIG1       -0.0615
      9 C          -1.7428    1.2294   -4.4661 C.ar    1  LIG1       -0.0617
     10 C          -0.9733    0.4025   -5.2747 C.ar    1  LIG1       -0.0615
     11 C           0.3297    0.0665   -4.8959 C.ar    1  LIG1       -0.0576
     12 N           2.2604    4.4406   -3.4271 N.ar    1  LIG1       -0.2002
     13 C           2.6698    3.5473   -2.5128 C.ar    1  LIG1        0.3190
     14 N           2.4946    3.6627   -1.1882 N.ar    1  LIG1       -0.2002
     15 C           1.8487    4.7597   -0.7574 C.ar    1  LIG1        0.0453
     16 C           1.3723    5.7260   -1.6235 C.ar    1  LIG1       -0.0193
     17 C           1.6051    5.5205   -2.9682 C.ar    1  LIG1        0.0453
     18 C           1.1169    6.4899   -3.9991 C.3     1  LIG1       -0.0221
     19 C           1.6556    4.9036    0.7213 C.3     1  LIG1       -0.0221
     20 O           3.3060    2.4516   -3.0292 O.3     1  LIG1       -0.4519
     21 C           3.0628    1.2052   -2.3364 C.3     1  LIG1        0.1554
     22 C           2.3694    0.1454   -3.2854 C.3     1  LIG1        0.0601
     23 C           4.3937    0.6894   -1.7269 C.2     1  LIG1        0.0833
     24 O           5.4577    0.8906   -2.3773 O.co2   1  LIG1       -0.5460
     25 O           4.2639    0.1047   -0.6036 O.co2   1  LIG1       -0.5460
     26 C           0.9107    0.5684   -3.7110 C.ar    1  LIG1       -0.0332
     27 C           2.1155   -1.1489   -2.4522 C.3     1  LIG1       -0.0477
     28 H           4.3837    1.4871   -7.3472 H       1  LIG1        0.0618
     29 H           5.3796   -0.7488   -7.7800 H       1  LIG1        0.0618
     30 H           5.0247   -2.5834   -6.1460 H       1  LIG1        0.0618
     31 H           3.7234   -2.2126   -4.1220 H       1  LIG1        0.0621
     32 H           3.0349    1.8763   -5.3454 H       1  LIG1        0.0621
     33 H           0.4459    1.7498   -1.9400 H       1  LIG1        0.0621
     34 H          -1.8088    2.3447   -2.6259 H       1  LIG1        0.0618
     35 H          -2.7534    1.4948   -4.7595 H       1  LIG1        0.0618
     36 H          -1.3803    0.0112   -6.2027 H       1  LIG1        0.0618
     37 H           0.8947   -0.5983   -5.5467 H       1  LIG1        0.0621
     38 H           0.8458    6.5984   -1.2607 H       1  LIG1        0.0653
     39 H           0.6499    7.3683   -3.5425 H       1  LIG1        0.0293
     40 H           0.3767    6.0041   -4.6431 H       1  LIG1        0.0293
     41 H           1.9539    6.8318   -4.6165 H       1  LIG1        0.0293
     42 H           2.0725    4.0436    1.2556 H       1  LIG1        0.0293
     43 H           0.5893    4.9675    0.9597 H       1  LIG1        0.0293
     44 H           2.1592    5.8057    1.0819 H       1  LIG1        0.0293
     45 H           2.4136    1.3567   -1.4646 H       1  LIG1        0.0810
     46 H           3.0428   -1.6152   -2.1054 H       1  LIG1        0.0243
     47 H           1.5742   -1.9072   -3.0317 H       1  LIG1        0.0243
     48 H           1.5106   -0.9365   -1.5622 H       1  LIG1        0.0243
@<TRIPOS>BOND
     1     1     2   ar
     2     2     3   ar
     3     3     4   ar
     4     4     5   ar
     5     5     6   ar
     6     5    22    1
     7     6     1   ar
     8     7     8   ar
     9     8     9   ar
    10     9    10   ar
    11    10    11   ar
    12    11    26   ar
    13    12    13   ar
    14    13    14   ar
    15    14    15   ar
    16    15    16   ar
    17    15    19    1
    18    16    17   ar
    19    17    12   ar
    20    17    18    1
    21    20    21    1
    22    20    13    1
    23    21    23    1
    24    21    22    1
    25    22    27    1
    26    22    26    1
    27    23    25   ar
    28    23    24   ar
    29    26     7   ar
    30     1    28    1
    31     2    29    1
    32     3    30    1
    33     4    31    1
    34     6    32    1
    35     7    33    1
    36     8    34    1
    37     9    35    1
    38    10    36    1
    39    11    37    1
    40    16    38    1
    41    18    39    1
    42    18    40    1
    43    18    41    1
    44    19    42    1
    45    19    43    1
    46    19    44    1
    47    21    45    1
    48    27    46    1
    49    27    47    1
    50    27    48    1
@<TRIPOS>MOLECULE
*****
 48 50 0 0 0
SMALL
GASTEIGER

@<TRIPOS>ATOM
      1 C           4.1973    0.5629   -6.6835 C.ar    1  LIG1       -0.0615
      2 C           4.8325   -0.6627   -6.8429 C.ar    1  LIG1       -0.0617
      3 C           4.6888   -1.6420   -5.8654 C.ar    1  LIG1       -0.0615
      4 C           3.9067   -1.3991   -4.7294 C.ar    1  LIG1       -0.0576
      5 C           3.2420   -0.1734   -4.5470 C.ar    1  LIG1       -0.0332
      6 C           3.4133    0.8022   -5.5517 C.ar    1  LIG1       -0.0576
      7 C           0.0514    1.3358   -2.9491 C.ar    1  LIG1       -0.0576
      8 C          -1.2508    1.6647   -3.3391 C.ar    1  LIG1       -0.0615
      9 C          -1.7674    1.1787   -4.5343 C.ar    1  LIG1       -0.0617
     10 C          -0.9862    0.3502   -5.3324 C.ar    1  LIG1       -0.0615
     11 C           0.3155    0.0204   -4.9403 C.ar    1  LIG1       -0.0576
     12 N           2.2213    4.5299   -3.4145 N.ar    1  LIG1       -0.2002
     13 C           2.6034    3.5791   -2.5447 C.ar    1  LIG1        0.3190
     14 N           2.4345    3.6395   -1.2150 N.ar    1  LIG1       -0.2002
     15 C           1.8479    4.7474   -0.7294 C.ar    1  LIG1        0.0453
     16 C           1.4094    5.7722   -1.5455 C.ar    1  LIG1       -0.0193
     17 C           1.6244    5.6193   -2.9008 C.ar    1  LIG1        0.0453
     18 C           1.1588    6.6476   -3.8838 C.3     1  LIG1       -0.0221
     19 C           1.6679    4.8301    0.7554 C.3     1  LIG1       -0.0221
     20 O           3.1431    2.4672   -3.1303 O.3     1  LIG1       -0.4519
     21 C           3.0145    1.2261   -2.3954 C.3     1  LIG1        0.1554
     22 C           2.3408    0.1265   -3.3078 C.3     1  LIG1        0.0601
     23 C           4.3972    0.8089   -1.8218 C.2     1  LIG1        0.0833
     24 O           5.4309    1.2951   -2.3630 O.co2   1  LIG1       -0.5460
     25 O           4.3389    0.0274   -0.8215 O.co2   1  LIG1       -0.5460
     26 C           0.8812    0.5315   -3.7537 C.ar    1  LIG1       -0.0332
     27 C           2.0797   -1.1497   -2.4517 C.3     1  LIG1       -0.0477
     28 H           4.3207    1.3470   -7.4242 H       1  LIG1        0.0618
     29 H           5.4559   -0.8451   -7.7116 H       1  LIG1        0.0618
     30 H           5.2028   -2.5931   -5.9677 H       1  LIG1        0.0618
     31 H           3.8525   -2.1859   -3.9830 H       1  LIG1        0.0621
     32 H           2.9345    1.7750   -5.4535 H       1  LIG1        0.0621
     33 H           0.3977    1.7195   -1.9940 H       1  LIG1        0.0621
     34 H          -1.8552    2.3008   -2.6994 H       1  LIG1        0.0618
     35 H          -2.7763    1.4379   -4.8384 H       1  LIG1        0.0618
     36 H          -1.3829   -0.0453   -6.2629 H       1  LIG1        0.0618
     37 H           0.8897   -0.6450   -5.5818 H       1  LIG1        0.0621
     38 H           0.9245    6.6499   -1.1400 H       1  LIG1        0.0653
     39 H           0.8333    7.5660   -3.3858 H       1  LIG1        0.0293
     40 H           0.3187    6.2517   -4.4629 H       1  LIG1        0.0293
     41 H           1.9714    6.9048   -4.5701 H       1  LIG1        0.0293
     42 H           2.0888    3.9489    1.2502 H       1  LIG1        0.0293
     43 H           0.6035    4.8850    1.0038 H       1  LIG1        0.0293
     44 H           2.1749    5.7163    1.1492 H       1  LIG1        0.0293
     45 H           2.3855    1.3548   -1.5055 H       1  LIG1        0.0810
     46 H           2.9986   -1.6095   -2.0769 H       1  LIG1        0.0243
     47 H           1.5530   -1.9224   -3.0270 H       1  LIG1        0.0243
     48 H           1.4570   -0.9229   -1.5768 H       1  LIG1        0.0243
@<TRIPOS>BOND
     1     1     2   ar
     2     2     3   ar
     3     3     4   ar
     4     4     5   ar
     5     5     6   ar
     6     5    22    1
     7     6     1   ar
     8     7     8   ar
     9     8     9   ar
    10     9    10   ar
    11    10    11   ar
    12    11    26   ar
    13    12    13   ar
    14    13    14   ar
    15    14    15   ar
    16    15    16   ar
    17    15    19    1
    18    16    17   ar
    19    17    12   ar
    20    17    18    1
    21    20    21    1
    22    20    13    1
    23    21    23    1
    24    21    22    1
    25    22    27    1
    26    22    26    1
    27    23    25   ar
    28    23    24   ar
    29    26     7   ar
    30     1    28    1
    31     2    29    1
    32     3    30    1
    33     4    31    1
    34     6    32    1
    35     7    33    1
    36     8    34    1
    37     9    35    1
    38    10    36    1
    39    11    37    1
    40    16    38    1
    41    18    39    1
    42    18    40    1
    43    18    41    1
    44    19    42    1
    45    19    43    1
    46    19    44    1
    47    21    45    1
    48    27    46    1
    49    27    47    1
    50    27    48    1
@<TRIPOS>MOLECULE
*****
 48 50 0 0 0
SMALL
GASTEIGER

@<TRIPOS>ATOM
      1 C           4.8040   -1.4289   -5.7275 C.ar    1  LIG1       -0.0615
      2 C           4.6457   -0.5835   -6.8214 C.ar    1  LIG1       -0.0617
      3 C           3.7280    0.4595   -6.7572 C.ar    1  LIG1       -0.0615
      4 C           2.9654    0.6519   -5.6017 C.ar    1  LIG1       -0.0576
      5 C           3.0864   -0.2050   -4.4887 C.ar    1  LIG1       -0.0332
      6 C           4.0356   -1.2404   -4.5742 C.ar    1  LIG1       -0.0576
      7 C           0.3045    1.7753   -3.4702 C.ar    1  LIG1       -0.0576
      8 C          -0.9933    2.1057   -3.8766 C.ar    1  LIG1       -0.0615
      9 C          -1.8279    1.1362   -4.4212 C.ar    1  LIG1       -0.0617
     10 C          -1.3616   -0.1646   -4.5686 C.ar    1  LIG1       -0.0615
     11 C          -0.0634   -0.4932   -4.1658 C.ar    1  LIG1       -0.0576
     12 N           5.2713    2.5094   -3.2122 N.ar    1  LIG1       -0.2002
     13 C           5.4511    1.3851   -2.5038 C.ar    1  LIG1        0.3190
     14 N           6.6476    0.8392   -2.2249 N.ar    1  LIG1       -0.2002
     15 C           7.7319    1.4946   -2.6759 C.ar    1  LIG1        0.0453
     16 C           7.6430    2.6669   -3.4013 C.ar    1  LIG1       -0.0193
     17 C           6.3723    3.1431   -3.6495 C.ar    1  LIG1        0.0453
     18 C           6.1478    4.4034   -4.4249 C.3     1  LIG1       -0.0221
     19 C           9.0694    0.8946   -2.3687 C.3     1  LIG1       -0.0221
     20 O           4.3800    0.6476   -2.0650 O.3     1  LIG1       -0.4519
     21 C           3.0562    1.1617   -2.3785 C.3     1  LIG1        0.1554
     22 C           2.2556    0.0648   -3.1780 C.3     1  LIG1        0.0601
     23 C           2.4286    1.6115   -1.0283 C.2     1  LIG1        0.0833
     24 O           2.2350    0.7180   -0.1548 O.co2   1  LIG1       -0.5460
     25 O           2.1839    2.8546   -0.9386 O.co2   1  LIG1       -0.5460
     26 C           0.7989    0.4649   -3.5891 C.ar    1  LIG1       -0.0332
     27 C           2.1477   -1.2364   -2.3236 C.3     1  LIG1       -0.0477
     28 H           5.5407   -2.2264   -5.7558 H       1  LIG1        0.0618
     29 H           5.2498   -0.7247   -7.7121 H       1  LIG1        0.0618
     30 H           3.6106    1.1385   -7.5961 H       1  LIG1        0.0618
     31 H           2.2811    1.4969   -5.5710 H       1  LIG1        0.0621
     32 H           4.2240   -1.8923   -3.7257 H       1  LIG1        0.0621
     33 H           0.9124    2.5780   -3.0587 H       1  LIG1        0.0621
     34 H          -1.3427    3.1272   -3.7537 H       1  LIG1        0.0618
     35 H          -2.8360    1.3962   -4.7270 H       1  LIG1        0.0618
     36 H          -2.0026   -0.9289   -4.9957 H       1  LIG1        0.0618
     37 H           0.2769   -1.5145   -4.3158 H       1  LIG1        0.0621
     38 H           8.5252    3.1818   -3.7565 H       1  LIG1        0.0653
     39 H           7.0887    4.8345   -4.7804 H       1  LIG1        0.0293
     40 H           5.6478    5.1444   -3.7938 H       1  LIG1        0.0293
     41 H           5.5180    4.1966   -5.2961 H       1  LIG1        0.0293
     42 H           8.9613   -0.0172   -1.7727 H       1  LIG1        0.0293
     43 H           9.6810    1.6021   -1.8004 H       1  LIG1        0.0293
     44 H           9.5885    0.6350   -3.2966 H       1  LIG1        0.0293
     45 H           3.1080    2.0569   -3.0099 H       1  LIG1        0.0810
     46 H           3.0855   -1.4793   -1.8117 H       1  LIG1        0.0243
     47 H           1.8904   -2.1135   -2.9296 H       1  LIG1        0.0243
     48 H           1.3697   -1.1529   -1.5560 H       1  LIG1        0.0243
@<TRIPOS>BOND
     1     1     2   ar
     2     2     3   ar
     3     3     4   ar
     4     4     5   ar
     5     5     6   ar
     6     5    22    1
     7     6     1   ar
     8     7     8   ar
     9     8     9   ar
    10     9    10   ar
    11    10    11   ar
    12    11    26   ar
    13    12    13   ar
    14    13    14   ar
    15    14    15   ar
    16    15    16   ar
    17    15    19    1
    18    16    17   ar
    19    17    12   ar
    20    17    18    1
    21    20    21    1
    22    20    13    1
    23    21    23    1
    24    21    22    1
    25    22    27    1
    26    22    26    1
    27    23    25   ar
    28    23    24   ar
    29    26     7   ar
    30     1    28    1
    31     2    29    1
    32     3    30    1
    33     4    31    1
    34     6    32    1
    35     7    33    1
    36     8    34    1
    37     9    35    1
    38    10    36    1
    39    11    37    1
    40    16    38    1
    41    18    39    1
    42    18    40    1
    43    18    41    1
    44    19    42    1
    45    19    43    1
    46    19    44    1
    47    21    45    1
    48    27    46    1
    49    27    47    1
    50    27    48    1
@<TRIPOS>MOLECULE
*****
 48 50 0 0 0
SMALL
GASTEIGER

@<TRIPOS>ATOM
      1 C           4.1206    0.7115   -6.5365 C.ar    1  LIG1       -0.0615
      2 C           4.6955   -0.5202   -6.8240 C.ar    1  LIG1       -0.0617
      3 C           4.4907   -1.5904   -5.9590 C.ar    1  LIG1       -0.0615
      4 C           3.7160   -1.4286   -4.8014 C.ar    1  LIG1       -0.0576
      5 C           3.1189   -0.1952   -4.4879 C.ar    1  LIG1       -0.0332
      6 C           3.3382    0.8687   -5.3901 C.ar    1  LIG1       -0.0576
      7 C           0.4497    1.8278   -3.7031 C.ar    1  LIG1       -0.0576
      8 C          -0.8299    2.2012   -4.1301 C.ar    1  LIG1       -0.0615
      9 C          -1.7614    1.2322   -4.4804 C.ar    1  LIG1       -0.0617
     10 C          -1.4085   -0.1092   -4.4192 C.ar    1  LIG1       -0.0615
     11 C          -0.1225   -0.4807   -4.0090 C.ar    1  LIG1       -0.0576
     12 N           5.2450    2.4993   -3.1358 N.ar    1  LIG1       -0.2002
     13 C           5.4341    1.3667   -2.4422 C.ar    1  LIG1        0.3190
     14 N           6.6372    0.8213   -2.1948 N.ar    1  LIG1       -0.2002
     15 C           7.7090    1.4756   -2.6762 C.ar    1  LIG1        0.0453
     16 C           7.6028    2.6480   -3.4004 C.ar    1  LIG1       -0.0193
     17 C           6.3281    3.1302   -3.6072 C.ar    1  LIG1        0.0453
     18 C           6.0787    4.3814   -4.3884 C.3     1  LIG1       -0.0221
     19 C           9.0552    0.8750   -2.4064 C.3     1  LIG1       -0.0221
     20 O           4.3671    0.6308   -1.9856 O.3     1  LIG1       -0.4519
     21 C           3.0451    1.1308   -2.3227 C.3     1  LIG1        0.1554
     22 C           2.2764    0.0474   -3.1786 C.3     1  LIG1        0.0601
     23 C           2.3515    1.5434   -0.9931 C.2     1  LIG1        0.0833
     24 O           2.2723    0.6650   -0.0833 O.co2   1  LIG1       -0.5460
     25 O           1.9506    2.7471   -0.9505 O.co2   1  LIG1       -0.5460
     26 C           0.8362    0.4767   -3.6188 C.ar    1  LIG1       -0.0332
     27 C           2.1725   -1.2574   -2.3276 C.3     1  LIG1       -0.0477
     28 H           4.2862    1.5613   -7.1921 H       1  LIG1        0.0618
     29 H           5.3109   -0.6428   -7.7087 H       1  LIG1        0.0618
     30 H           4.9457   -2.5529   -6.1680 H       1  LIG1        0.0618
     31 H           3.6174   -2.2877   -4.1458 H       1  LIG1        0.0621
     32 H           2.9213    1.8520   -5.1846 H       1  LIG1        0.0621
     33 H           1.1302    2.6295   -3.4265 H       1  LIG1        0.0621
     34 H          -1.0904    3.2556   -4.1657 H       1  LIG1        0.0618
     35 H          -2.7588    1.5249   -4.7940 H       1  LIG1        0.0618
     36 H          -2.1296   -0.8754   -4.6860 H       1  LIG1        0.0618
     37 H           0.1139   -1.5400   -3.9949 H       1  LIG1        0.0621
     38 H           8.4746    3.1568   -3.7852 H       1  LIG1        0.0653
     39 H           7.0118    4.8391   -4.7327 H       1  LIG1        0.0293
     40 H           5.5499    5.1096   -3.7666 H       1  LIG1        0.0293
     41 H           5.4643    4.1536   -5.2670 H       1  LIG1        0.0293
     42 H           8.9628   -0.0398   -1.8129 H       1  LIG1        0.0293
     43 H           9.6798    1.5806   -1.8516 H       1  LIG1        0.0293
     44 H           9.5491    0.6204   -3.3498 H       1  LIG1        0.0293
     45 H           3.1089    2.0531   -2.9064 H       1  LIG1        0.0810
     46 H           3.1364   -1.5405   -1.8901 H       1  LIG1        0.0243
     47 H           1.8345   -2.1224   -2.9080 H       1  LIG1        0.0243
     48 H           1.4510   -1.1511   -1.5106 H       1  LIG1        0.0243
@<TRIPOS>BOND
     1     1     2   ar
     2     2     3   ar
     3     3     4   ar
     4     4     5   ar
     5     5     6   ar
     6     5    22    1
     7     6     1   ar
     8     7     8   ar
     9     8     9   ar
    10     9    10   ar
    11    10    11   ar
    12    11    26   ar
    13    12    13   ar
    14    13    14   ar
    15    14    15   ar
    16    15    16   ar
    17    15    19    1
    18    16    17   ar
    19    17    12   ar
    20    17    18    1
    21    20    21    1
    22    20    13    1
    23    21    23    1
    24    21    22    1
    25    22    27    1
    26    22    26    1
    27    23    25   ar
    28    23    24   ar
    29    26     7   ar
    30     1    28    1
    31     2    29    1
    32     3    30    1
    33     4    31    1
    34     6    32    1
    35     7    33    1
    36     8    34    1
    37     9    35    1
    38    10    36    1
    39    11    37    1
    40    16    38    1
    41    18    39    1
    42    18    40    1
    43    18    41    1
    44    19    42    1
    45    19    43    1
    46    19    44    1
    47    21    45    1
    48    27    46    1
    49    27    47    1
    50    27    48    1
@<TRIPOS>MOLECULE
*****
 48 50 0 0 0
SMALL
GASTEIGER

@<TRIPOS>ATOM
      1 C           4.2374    0.7653   -6.4824 C.ar    1  LIG1       -0.0615
      2 C           4.7762   -0.4804   -6.7830 C.ar    1  LIG1       -0.0617
      3 C           4.5287   -1.5602   -5.9395 C.ar    1  LIG1       -0.0615
      4 C           3.7447   -1.3953   -4.7913 C.ar    1  LIG1       -0.0576
      5 C           3.1777   -0.1504   -4.4703 C.ar    1  LIG1       -0.0332
      6 C           3.4428    0.9268   -5.3451 C.ar    1  LIG1       -0.0576
      7 C           0.0282    1.3981   -2.9277 C.ar    1  LIG1       -0.0576
      8 C          -1.2549    1.7517   -3.3638 C.ar    1  LIG1       -0.0615
      9 C          -1.7580    1.2498   -4.5587 C.ar    1  LIG1       -0.0617
     10 C          -0.9828    0.3783   -5.3121 C.ar    1  LIG1       -0.0615
     11 C           0.2922    0.0155   -4.8668 C.ar    1  LIG1       -0.0576
     12 N           5.2321    2.4859   -3.1359 N.ar    1  LIG1       -0.2002
     13 C           5.4421    1.3539   -2.4467 C.ar    1  LIG1        0.3190
     14 N           6.6529    0.8195   -2.2063 N.ar    1  LIG1       -0.2002
     15 C           7.7143    1.4886   -2.6886 C.ar    1  LIG1        0.0453
     16 C           7.5916    2.6615   -3.4113 C.ar    1  LIG1       -0.0193
     17 C           6.3094    3.1285   -3.6107 C.ar    1  LIG1        0.0453
     18 C           6.0375    4.3725   -4.3943 C.3     1  LIG1       -0.0221
     19 C           9.0681    0.9019   -2.4293 C.3     1  LIG1       -0.0221
     20 O           4.3856    0.5817   -2.0347 O.3     1  LIG1       -0.4519
     21 C           3.0528    1.1137   -2.2854 C.3     1  LIG1        0.1554
     22 C           2.2686    0.0846   -3.1981 C.3     1  LIG1        0.0601
     23 C           2.4913    1.4906   -0.8854 C.2     1  LIG1        0.0833
     24 O           2.2341    0.5390   -0.0955 O.co2   1  LIG1       -0.5460
     25 O           2.3247    2.7313   -0.6846 O.co2   1  LIG1       -0.5460
     26 C           0.8458    0.5366   -3.6743 C.ar    1  LIG1       -0.0332
     27 C           2.0293   -1.2422   -2.4291 C.3     1  LIG1       -0.0477
     28 H           4.4370    1.6190   -7.1217 H       1  LIG1        0.0618
     29 H           5.3951   -0.6090   -7.6647 H       1  LIG1        0.0618
     30 H           4.9539   -2.5347   -6.1630 H       1  LIG1        0.0618
     31 H           3.5986   -2.2618   -4.1529 H       1  LIG1        0.0621
     32 H           3.0370    1.9139   -5.1259 H       1  LIG1        0.0621
     33 H           0.3465    1.8078   -1.9740 H       1  LIG1        0.0621
     34 H          -1.8560    2.4184   -2.7510 H       1  LIG1        0.0618
     35 H          -2.7522    1.5294   -4.8917 H       1  LIG1        0.0618
     36 H          -1.3643   -0.0290   -6.2426 H       1  LIG1        0.0618
     37 H           0.8589   -0.6864   -5.4748 H       1  LIG1        0.0621
     38 H           8.4561    3.1792   -3.8023 H       1  LIG1        0.0653
     39 H           6.9604    4.8383   -4.7551 H       1  LIG1        0.0293
     40 H           5.5084    5.0989   -3.7690 H       1  LIG1        0.0293
     41 H           5.4143    4.1339   -5.2620 H       1  LIG1        0.0293
     42 H           8.9901   -0.0149   -1.8350 H       1  LIG1        0.0293
     43 H           9.6902    1.6133   -1.8771 H       1  LIG1        0.0293
     44 H           9.5596    0.6532   -3.3752 H       1  LIG1        0.0293
     45 H           3.0774    2.0649   -2.8323 H       1  LIG1        0.0810
     46 H           2.9557   -1.6380   -1.9960 H       1  LIG1        0.0243
     47 H           1.6071   -2.0198   -3.0778 H       1  LIG1        0.0243
     48 H           1.3073   -1.1192   -1.6158 H       1  LIG1        0.0243
@<TRIPOS>BOND
     1     1     2   ar
     2     2     3   ar
     3     3     4   ar
     4     4     5   ar
     5     5     6   ar
     6     5    22    1
     7     6     1   ar
     8     7     8   ar
     9     8     9   ar
    10     9    10   ar
    11    10    11   ar
    12    11    26   ar
    13    12    13   ar
    14    13    14   ar
    15    14    15   ar
    16    15    16   ar
    17    15    19    1
    18    16    17   ar
    19    17    12   ar
    20    17    18    1
    21    20    21    1
    22    20    13    1
    23    21    23    1
    24    21    22    1
    25    22    27    1
    26    22    26    1
    27    23    25   ar
    28    23    24   ar
    29    26     7   ar
    30     1    28    1
    31     2    29    1
    32     3    30    1
    33     4    31    1
    34     6    32    1
    35     7    33    1
    36     8    34    1
    37     9    35    1
    38    10    36    1
    39    11    37    1
    40    16    38    1
    41    18    39    1
    42    18    40    1
    43    18    41    1
    44    19    42    1
    45    19    43    1
    46    19    44    1
    47    21    45    1
    48    27    46    1
    49    27    47    1
    50    27    48    1
@<TRIPOS>MOLECULE
*****
 48 50 0 0 0
SMALL
GASTEIGER

@<TRIPOS>ATOM
      1 C           4.5100   -1.5822   -5.9034 C.ar    1  LIG1       -0.0615
      2 C           4.5873   -0.5682   -6.8541 C.ar    1  LIG1       -0.0617
      3 C           3.9216    0.6328   -6.6345 C.ar    1  LIG1       -0.0615
      4 C           3.1743    0.8133   -5.4687 C.ar    1  LIG1       -0.0576
      5 C           3.0733   -0.1997   -4.4914 C.ar    1  LIG1       -0.0332
      6 C           3.7668   -1.3981   -4.7324 C.ar    1  LIG1       -0.0576
      7 C           0.3364    1.8123   -3.4951 C.ar    1  LIG1       -0.0576
      8 C          -0.9489    2.1640   -3.9208 C.ar    1  LIG1       -0.0615
      9 C          -1.7932    1.2090   -4.4756 C.ar    1  LIG1       -0.0617
     10 C          -1.3474   -0.1003   -4.6144 C.ar    1  LIG1       -0.0615
     11 C          -0.0596   -0.4495   -4.1947 C.ar    1  LIG1       -0.0576
     12 N           5.2792    2.5006   -3.1798 N.ar    1  LIG1       -0.2002
     13 C           5.4606    1.3626   -2.4944 C.ar    1  LIG1        0.3190
     14 N           6.6587    0.8144   -2.2258 N.ar    1  LIG1       -0.2002
     15 C           7.7410    1.4810   -2.6654 C.ar    1  LIG1        0.0453
     16 C           7.6503    2.6647   -3.3698 C.ar    1  LIG1       -0.0193
     17 C           6.3783    3.1454   -3.6062 C.ar    1  LIG1        0.0453
     18 C           6.1508    4.4143   -4.3649 C.3     1  LIG1       -0.0221
     19 C           9.0801    0.8765   -2.3711 C.3     1  LIG1       -0.0221
     20 O           4.3902    0.6126   -2.0751 O.3     1  LIG1       -0.4519
     21 C           3.0661    1.1450   -2.3585 C.3     1  LIG1        0.1554
     22 C           2.2521    0.0680   -3.1755 C.3     1  LIG1        0.0601
     23 C           2.4536    1.5755   -0.9943 C.2     1  LIG1        0.0833
     24 O           2.3475    0.6869   -0.1012 O.co2   1  LIG1       -0.5460
     25 O           2.1343    2.8019   -0.9130 O.co2   1  LIG1       -0.5460
     26 C           0.8100    0.4940   -3.6054 C.ar    1  LIG1       -0.0332
     27 C           2.1184   -1.2256   -2.3139 C.3     1  LIG1       -0.0477
     28 H           5.0425   -2.5153   -6.0594 H       1  LIG1        0.0618
     29 H           5.1762   -0.7084   -7.7559 H       1  LIG1        0.0618
     30 H           3.9892    1.4385   -7.3588 H       1  LIG1        0.0618
     31 H           2.6821    1.7707   -5.3123 H       1  LIG1        0.0621
     32 H           3.7664   -2.2025   -4.0031 H       1  LIG1        0.0621
     33 H           0.9519    2.6026   -3.0738 H       1  LIG1        0.0621
     34 H          -1.2821    3.1912   -3.8057 H       1  LIG1        0.0618
     35 H          -2.7921    1.4850   -4.7964 H       1  LIG1        0.0618
     36 H          -1.9957   -0.8550   -5.0500 H       1  LIG1        0.0618
     37 H           0.2639   -1.4768   -4.3422 H       1  LIG1        0.0621
     38 H           8.5310    3.1863   -3.7183 H       1  LIG1        0.0653
     39 H           7.0932    4.8794   -4.6715 H       1  LIG1        0.0293
     40 H           5.6049    5.1291   -3.7407 H       1  LIG1        0.0293
     41 H           5.5632    4.2085   -5.2652 H       1  LIG1        0.0293
     42 H           8.9747   -0.0392   -1.7807 H       1  LIG1        0.0293
     43 H           9.6962    1.5792   -1.8012 H       1  LIG1        0.0293
     44 H           9.5927    0.6236   -3.3041 H       1  LIG1        0.0293
     45 H           3.1203    2.0568   -2.9632 H       1  LIG1        0.0810
     46 H           3.0705   -1.5165   -1.8565 H       1  LIG1        0.0243
     47 H           1.7773   -2.0897   -2.8946 H       1  LIG1        0.0243
     48 H           1.3861   -1.0985   -1.5092 H       1  LIG1        0.0243
@<TRIPOS>BOND
     1     1     2   ar
     2     2     3   ar
     3     3     4   ar
     4     4     5   ar
     5     5     6   ar
     6     5    22    1
     7     6     1   ar
     8     7     8   ar
     9     8     9   ar
    10     9    10   ar
    11    10    11   ar
    12    11    26   ar
    13    12    13   ar
    14    13    14   ar
    15    14    15   ar
    16    15    16   ar
    17    15    19    1
    18    16    17   ar
    19    17    12   ar
    20    17    18    1
    21    20    21    1
    22    20    13    1
    23    21    23    1
    24    21    22    1
    25    22    27    1
    26    22    26    1
    27    23    25   ar
    28    23    24   ar
    29    26     7   ar
    30     1    28    1
    31     2    29    1
    32     3    30    1
    33     4    31    1
    34     6    32    1
    35     7    33    1
    36     8    34    1
    37     9    35    1
    38    10    36    1
    39    11    37    1
    40    16    38    1
    41    18    39    1
    42    18    40    1
    43    18    41    1
    44    19    42    1
    45    19    43    1
    46    19    44    1
    47    21    45    1
    48    27    46    1
    49    27    47    1
    50    27    48    1
@<TRIPOS>MOLECULE
*****
 48 50 0 0 0
SMALL
GASTEIGER

@<TRIPOS>ATOM
      1 C           4.1343    0.5601   -6.7033 C.ar    1  LIG1       -0.0615
      2 C           4.7643   -0.6672   -6.8732 C.ar    1  LIG1       -0.0617
      3 C           4.6406   -1.6446   -5.8906 C.ar    1  LIG1       -0.0615
      4 C           3.8848   -1.3977   -4.7388 C.ar    1  LIG1       -0.0576
      5 C           3.2267   -0.1700   -4.5458 C.ar    1  LIG1       -0.0332
      6 C           3.3753    0.8037   -5.5557 C.ar    1  LIG1       -0.0576
      7 C           0.1358    1.4856   -2.9915 C.ar    1  LIG1       -0.0576
      8 C          -1.1684    1.8152   -3.3752 C.ar    1  LIG1       -0.0615
      9 C          -1.7490    1.2068   -4.4835 C.ar    1  LIG1       -0.0617
     10 C          -1.0288    0.2595   -5.2025 C.ar    1  LIG1       -0.0615
     11 C           0.2726   -0.0734   -4.8158 C.ar    1  LIG1       -0.0576
     12 N           2.7212    4.7394   -2.9418 N.ar    1  LIG1       -0.2002
     13 C           3.1151    3.6155   -2.3150 C.ar    1  LIG1        0.3190
     14 N           3.4492    3.5360   -1.0210 N.ar    1  LIG1       -0.2002
     15 C           3.4692    4.6866   -0.3274 C.ar    1  LIG1        0.0453
     16 C           3.0909    5.8935   -0.8845 C.ar    1  LIG1       -0.0193
     17 C           2.7121    5.8678   -2.2119 C.ar    1  LIG1        0.0453
     18 C           2.2444    7.1058   -2.9114 C.3     1  LIG1       -0.0221
     19 C           3.9312    4.6186    1.0964 C.3     1  LIG1       -0.0221
     20 O           3.0791    2.4935   -3.1002 O.3     1  LIG1       -0.4519
     21 C           3.0607    1.2315   -2.3889 C.3     1  LIG1        0.1554
     22 C           2.3596    0.1377   -3.2855 C.3     1  LIG1        0.0601
     23 C           4.4904    0.8222   -1.9282 C.2     1  LIG1        0.0833
     24 O           5.4728    1.2979   -2.5653 O.co2   1  LIG1       -0.5460
     25 O           4.5140    0.0385   -0.9262 O.co2   1  LIG1       -0.5460
     26 C           0.8978    0.5494   -3.7142 C.ar    1  LIG1       -0.0332
     27 C           2.1107   -1.1315   -2.4163 C.3     1  LIG1       -0.0477
     28 H           4.2450    1.3426   -7.4468 H       1  LIG1        0.0618
     29 H           5.3701   -0.8517   -7.7541 H       1  LIG1        0.0618
     30 H           5.1526   -2.5954   -6.0014 H       1  LIG1        0.0618
     31 H           3.8476   -2.1795   -3.9868 H       1  LIG1        0.0621
     32 H           2.9037    1.7781   -5.4449 H       1  LIG1        0.0621
     33 H           0.5403    1.9834   -2.1147 H       1  LIG1        0.0621
     34 H          -1.7237    2.5527   -2.8025 H       1  LIG1        0.0618
     35 H          -2.7585    1.4702   -4.7831 H       1  LIG1        0.0618
     36 H          -1.4727   -0.2237   -6.0671 H       1  LIG1        0.0618
     37 H           0.8058   -0.8250   -5.3936 H       1  LIG1        0.0621
     38 H           3.0977    6.8083   -0.3084 H       1  LIG1        0.0653
     39 H           2.3488    7.9947   -2.2803 H       1  LIG1        0.0293
     40 H           1.1888    7.0007   -3.1831 H       1  LIG1        0.0293
     41 H           2.8299    7.2652   -3.8230 H       1  LIG1        0.0293
     42 H           4.2177    3.5974    1.3662 H       1  LIG1        0.0293
     43 H           3.1313    4.9396    1.7699 H       1  LIG1        0.0293
     44 H           4.8025    5.2642    1.2405 H       1  LIG1        0.0293
     45 H           2.4650    1.3432   -1.4717 H       1  LIG1        0.0810
     46 H           3.0347   -1.5844   -2.0461 H       1  LIG1        0.0243
     47 H           1.5810   -1.9128   -2.9772 H       1  LIG1        0.0243
     48 H           1.4948   -0.8966   -1.5388 H       1  LIG1        0.0243
@<TRIPOS>BOND
     1     1     2   ar
     2     2     3   ar
     3     3     4   ar
     4     4     5   ar
     5     5     6   ar
     6     5    22    1
     7     6     1   ar
     8     7     8   ar
     9     8     9   ar
    10     9    10   ar
    11    10    11   ar
    12    11    26   ar
    13    12    13   ar
    14    13    14   ar
    15    14    15   ar
    16    15    16   ar
    17    15    19    1
    18    16    17   ar
    19    17    12   ar
    20    17    18    1
    21    20    21    1
    22    20    13    1
    23    21    23    1
    24    21    22    1
    25    22    27    1
    26    22    26    1
    27    23    25   ar
    28    23    24   ar
    29    26     7   ar
    30     1    28    1
    31     2    29    1
    32     3    30    1
    33     4    31    1
    34     6    32    1
    35     7    33    1
    36     8    34    1
    37     9    35    1
    38    10    36    1
    39    11    37    1
    40    16    38    1
    41    18    39    1
    42    18    40    1
    43    18    41    1
    44    19    42    1
    45    19    43    1
    46    19    44    1
    47    21    45    1
    48    27    46    1
    49    27    47    1
    50    27    48    1
@<TRIPOS>MOLECULE
*****
 48 50 0 0 0
SMALL
GASTEIGER

@<TRIPOS>ATOM
      1 C           4.1292    0.6272   -6.6895 C.ar    1  LIG1       -0.0615
      2 C           4.7396   -0.6044   -6.8924 C.ar    1  LIG1       -0.0617
      3 C           4.6072   -1.6021   -5.9322 C.ar    1  LIG1       -0.0615
      4 C           3.8617   -1.3718   -4.7697 C.ar    1  LIG1       -0.0576
      5 C           3.2228   -0.1403   -4.5428 C.ar    1  LIG1       -0.0332
      6 C           3.3807    0.8544   -5.5311 C.ar    1  LIG1       -0.0576
      7 C           0.2927    0.0914   -4.8576 C.ar    1  LIG1       -0.0576
      8 C          -1.0148    0.4389   -5.2125 C.ar    1  LIG1       -0.0615
      9 C          -1.7669    1.2641   -4.3849 C.ar    1  LIG1       -0.0617
     10 C          -1.2160    1.7282   -3.1966 C.ar    1  LIG1       -0.0615
     11 C           0.0926    1.3804   -2.8425 C.ar    1  LIG1       -0.0576
     12 N           2.2742    4.4715   -3.4244 N.ar    1  LIG1       -0.2002
     13 C           2.6726    3.5577   -2.5232 C.ar    1  LIG1        0.3190
     14 N           2.4968    3.6544   -1.1964 N.ar    1  LIG1       -0.2002
     15 C           1.8695    4.7560   -0.7490 C.ar    1  LIG1        0.0453
     16 C           1.4067    5.7422   -1.5992 C.ar    1  LIG1       -0.0193
     17 C           1.6388    5.5557   -2.9472 C.ar    1  LIG1        0.0453
     18 C           1.1544    6.5420   -3.9633 C.3     1  LIG1       -0.0221
     19 C           1.6746    4.8775    0.7312 C.3     1  LIG1       -0.0221
     20 O           3.2719    2.4530   -3.0636 O.3     1  LIG1       -0.4519
     21 C           3.0718    1.2101   -2.3498 C.3     1  LIG1        0.1554
     22 C           2.3574    0.1463   -3.2738 C.3     1  LIG1        0.0601
     23 C           4.4316    0.7178   -1.7785 C.2     1  LIG1        0.0833
     24 O           5.4869    1.0797   -2.3696 O.co2   1  LIG1       -0.5460
     25 O           4.3323   -0.0009   -0.7324 O.co2   1  LIG1       -0.5460
     26 C           0.8939    0.5799   -3.6781 C.ar    1  LIG1       -0.0332
     27 C           2.0964   -1.1455   -2.4407 C.3     1  LIG1       -0.0477
     28 H           4.2440    1.4255   -7.4166 H       1  LIG1        0.0618
     29 H           5.3353   -0.7774   -7.7820 H       1  LIG1        0.0618
     30 H           5.1025   -2.5582   -6.0693 H       1  LIG1        0.0618
     31 H           3.8156   -2.1730   -4.0389 H       1  LIG1        0.0621
     32 H           2.9195    1.8322   -5.3988 H       1  LIG1        0.0621
     33 H           0.8431   -0.5722   -5.5212 H       1  LIG1        0.0621
     34 H          -1.4385    0.0584   -6.1369 H       1  LIG1        0.0618
     35 H          -2.7809    1.5360   -4.6592 H       1  LIG1        0.0618
     36 H          -1.7986    2.3606   -2.5321 H       1  LIG1        0.0618
     37 H           0.4640    1.7448   -1.8890 H       1  LIG1        0.0621
     38 H           0.8911    6.6156   -1.2238 H       1  LIG1        0.0653
     39 H           0.7892    7.4614   -3.4946 H       1  LIG1        0.0293
     40 H           0.3376    6.1031   -4.5456 H       1  LIG1        0.0293
     41 H           1.9691    6.8107   -4.6437 H       1  LIG1        0.0293
     42 H           2.1035    4.0166    1.2543 H       1  LIG1        0.0293
     43 H           0.6076    4.9238    0.9692 H       1  LIG1        0.0293
     44 H           2.1657    5.7817    1.1041 H       1  LIG1        0.0293
     45 H           2.4519    1.3586   -1.4574 H       1  LIG1        0.0810
     46 H           3.0175   -1.6247   -2.0962 H       1  LIG1        0.0243
     47 H           1.5472   -1.8987   -3.0209 H       1  LIG1        0.0243
     48 H           1.4959   -0.9296   -1.5480 H       1  LIG1        0.0243
@<TRIPOS>BOND
     1     1     2   ar
     2     2     3   ar
     3     3     4   ar
     4     4     5   ar
     5     5     6   ar
     6     5    22    1
     7     6     1   ar
     8     7     8   ar
     9     8     9   ar
    10     9    10   ar
    11    10    11   ar
    12    11    26   ar
    13    12    13   ar
    14    13    14   ar
    15    14    15   ar
    16    15    16   ar
    17    15    19    1
    18    16    17   ar
    19    17    12   ar
    20    17    18    1
    21    20    21    1
    22    20    13    1
    23    21    23    1
    24    21    22    1
    25    22    27    1
    26    22    26    1
    27    23    25   ar
    28    23    24   ar
    29    26     7   ar
    30     1    28    1
    31     2    29    1
    32     3    30    1
    33     4    31    1
    34     6    32    1
    35     7    33    1
    36     8    34    1
    37     9    35    1
    38    10    36    1
    39    11    37    1
    40    16    38    1
    41    18    39    1
    42    18    40    1
    43    18    41    1
    44    19    42    1
    45    19    43    1
    46    19    44    1
    47    21    45    1
    48    27    46    1
    49    27    47    1
    50    27    48    1
@<TRIPOS>MOLECULE
*****
 48 50 0 0 0
SMALL
GASTEIGER

@<TRIPOS>ATOM
      1 C           3.8134    0.5005   -6.7743 C.ar    1  LIG1       -0.0615
      2 C           4.7878   -0.4904   -6.7973 C.ar    1  LIG1       -0.0617
      3 C           4.9596   -1.3062   -5.6853 C.ar    1  LIG1       -0.0615
      4 C           4.1514   -1.1360   -4.5573 C.ar    1  LIG1       -0.0576
      5 C           3.1479   -0.1492   -4.5038 C.ar    1  LIG1       -0.0332
      6 C           3.0135    0.6758   -5.6392 C.ar    1  LIG1       -0.0576
      7 C           0.4772    1.8591   -3.8057 C.ar    1  LIG1       -0.0576
      8 C          -0.8120    2.2180   -4.2325 C.ar    1  LIG1       -0.0615
      9 C          -1.7769    1.2411   -4.4511 C.ar    1  LIG1       -0.0617
     10 C          -1.4517   -0.0950   -4.2707 C.ar    1  LIG1       -0.0615
     11 C          -0.1581   -0.4494   -3.8776 C.ar    1  LIG1       -0.0576
     12 N           5.3230    2.6281   -2.5269 N.ar    1  LIG1       -0.2002
     13 C           5.4353    1.3056   -2.4074 C.ar    1  LIG1        0.3190
     14 N           6.5381    0.5885   -2.6944 N.ar    1  LIG1       -0.2002
     15 C           7.5851    1.2861   -3.1918 C.ar    1  LIG1        0.0453
     16 C           7.5490    2.6542   -3.3725 C.ar    1  LIG1       -0.0193
     17 C           6.3850    3.2904   -3.0144 C.ar    1  LIG1        0.0453
     18 C           6.2173    4.7707   -3.1490 C.3     1  LIG1       -0.0221
     19 C           8.8209    0.5150   -3.5608 C.3     1  LIG1       -0.0221
     20 O           4.3626    0.5783   -1.9402 O.3     1  LIG1       -0.4519
     21 C           3.0587    1.1313   -2.3156 C.3     1  LIG1        0.1554
     22 C           2.2855    0.0770   -3.1993 C.3     1  LIG1        0.0601
     23 C           2.3354    1.5344   -1.0012 C.2     1  LIG1        0.0833
     24 O           2.1371    0.6213   -0.1437 O.co2   1  LIG1       -0.5460
     25 O           2.0210    2.7657   -0.9109 O.co2   1  LIG1       -0.5460
     26 C           0.8367    0.5116   -3.6133 C.ar    1  LIG1       -0.0332
     27 C           2.1877   -1.2634   -2.4020 C.3     1  LIG1       -0.0477
     28 H           3.6770    1.1514   -7.6327 H       1  LIG1        0.0618
     29 H           5.4204   -0.6176   -7.6698 H       1  LIG1        0.0618
     30 H           5.7354   -2.0652   -5.6749 H       1  LIG1        0.0618
     31 H           4.3588   -1.7649   -3.6953 H       1  LIG1        0.0621
     32 H           2.2864    1.4827   -5.6608 H       1  LIG1        0.0621
     33 H           1.1944    2.6596   -3.6381 H       1  LIG1        0.0621
     34 H          -1.0526    3.2656   -4.3785 H       1  LIG1        0.0618
     35 H          -2.7818    1.5218   -4.7530 H       1  LIG1        0.0618
     36 H          -2.1959   -0.8698   -4.4289 H       1  LIG1        0.0618
     37 H           0.0480   -1.5133   -3.7722 H       1  LIG1        0.0621
     38 H           8.3948    3.1929   -3.7710 H       1  LIG1        0.0653
     39 H           7.1157    5.2485   -3.5548 H       1  LIG1        0.0293
     40 H           6.0091    5.2104   -2.1665 H       1  LIG1        0.0293
     41 H           5.3792    4.9920   -3.8191 H       1  LIG1        0.0293
     42 H           8.6961   -0.5518   -3.3652 H       1  LIG1        0.0293
     43 H           9.6745    0.8754   -2.9773 H       1  LIG1        0.0293
     44 H           9.0377    0.6460   -4.6261 H       1  LIG1        0.0293
     45 H           3.1726    2.0445   -2.9083 H       1  LIG1        0.0810
     46 H           3.1342   -1.5500   -1.9311 H       1  LIG1        0.0243
     47 H           1.9065   -2.1061   -3.0473 H       1  LIG1        0.0243
     48 H           1.4396   -1.2084   -1.6064 H       1  LIG1        0.0243
@<TRIPOS>BOND
     1     1     2   ar
     2     2     3   ar
     3     3     4   ar
     4     4     5   ar
     5     5     6   ar
     6     5    22    1
     7     6     1   ar
     8     7     8   ar
     9     8     9   ar
    10     9    10   ar
    11    10    11   ar
    12    11    26   ar
    13    12    13   ar
    14    13    14   ar
    15    14    15   ar
    16    15    16   ar
    17    15    19    1
    18    16    17   ar
    19    17    12   ar
    20    17    18    1
    21    20    21    1
    22    20    13    1
    23    21    23    1
    24    21    22    1
    25    22    27    1
    26    22    26    1
    27    23    25   ar
    28    23    24   ar
    29    26     7   ar
    30     1    28    1
    31     2    29    1
    32     3    30    1
    33     4    31    1
    34     6    32    1
    35     7    33    1
    36     8    34    1
    37     9    35    1
    38    10    36    1
    39    11    37    1
    40    16    38    1
    41    18    39    1
    42    18    40    1
    43    18    41    1
    44    19    42    1
    45    19    43    1
    46    19    44    1
    47    21    45    1
    48    27    46    1
    49    27    47    1
    50    27    48    1
@<TRIPOS>MOLECULE
*****
 48 50 0 0 0
SMALL
GASTEIGER

@<TRIPOS>ATOM
      1 C           3.7700    0.4880   -6.7661 C.ar    1  LIG1       -0.0615
      2 C           4.6544   -0.5820   -6.8524 C.ar    1  LIG1       -0.0617
      3 C           4.7832   -1.4578   -5.7785 C.ar    1  LIG1       -0.0615
      4 C           4.0188   -1.2726   -4.6221 C.ar    1  LIG1       -0.0576
      5 C           3.1028   -0.2103   -4.5155 C.ar    1  LIG1       -0.0332
      6 C           3.0107    0.6769   -5.6081 C.ar    1  LIG1       -0.0576
      7 C           0.2684    1.7336   -3.3552 C.ar    1  LIG1       -0.0576
      8 C          -1.0244    2.0716   -3.7719 C.ar    1  LIG1       -0.0615
      9 C          -1.7967    1.1602   -4.4842 C.ar    1  LIG1       -0.0617
     10 C          -1.2756   -0.0928   -4.7840 C.ar    1  LIG1       -0.0615
     11 C           0.0132   -0.4321   -4.3626 C.ar    1  LIG1       -0.0576
     12 N           5.3197    2.1597   -3.5692 N.ar    1  LIG1       -0.2002
     13 C           5.4398    1.4014   -2.4674 C.ar    1  LIG1        0.3190
     14 N           6.5878    1.1962   -1.8011 N.ar    1  LIG1       -0.2002
     15 C           7.6709    1.8580   -2.2464 C.ar    1  LIG1        0.0453
     16 C           7.6374    2.6744   -3.3608 C.ar    1  LIG1       -0.0193
     17 C           6.4193    2.8018   -3.9956 C.ar    1  LIG1        0.0453
     18 C           6.2757    3.6106   -5.2465 C.3     1  LIG1       -0.0221
     19 C           8.9498    1.6615   -1.4921 C.3     1  LIG1       -0.0221
     20 O           4.3950    0.5997   -2.0756 O.3     1  LIG1       -0.4519
     21 C           3.0712    1.1228   -2.3802 C.3     1  LIG1        0.1554
     22 C           2.2643    0.0509   -3.2073 C.3     1  LIG1        0.0601
     23 C           2.4686    1.5674   -1.0162 C.2     1  LIG1        0.0833
     24 O           2.3807    2.8253   -0.8601 O.co2   1  LIG1       -0.5460
     25 O           2.1301    0.6596   -0.2055 O.co2   1  LIG1       -0.5460
     26 C           0.8160    0.4698   -3.6281 C.ar    1  LIG1       -0.0332
     27 C           2.1183   -1.2643   -2.3831 C.3     1  LIG1       -0.0477
     28 H           3.6772    1.1910   -7.5880 H       1  LIG1        0.0618
     29 H           5.2560   -0.7214   -7.7449 H       1  LIG1        0.0618
     30 H           5.4936   -2.2777   -5.8252 H       1  LIG1        0.0618
     31 H           4.1808   -1.9514   -3.7895 H       1  LIG1        0.0621
     32 H           2.3534    1.5423   -5.5542 H       1  LIG1        0.0621
     33 H           0.8252    2.4928   -2.8119 H       1  LIG1        0.0621
     34 H          -1.4197    3.0538   -3.5271 H       1  LIG1        0.0618
     35 H          -2.7991    1.4280   -4.8020 H       1  LIG1        0.0618
     36 H          -1.8659   -0.8105   -5.3452 H       1  LIG1        0.0618
     37 H           0.4014   -1.4131   -4.6270 H       1  LIG1        0.0621
     38 H           8.5218    3.1841   -3.7173 H       1  LIG1        0.0653
     39 H           7.0601    4.3697   -5.3243 H       1  LIG1        0.0293
     40 H           5.3096    4.1251   -5.2567 H       1  LIG1        0.0293
     41 H           6.3331    2.9539   -6.1201 H       1  LIG1        0.0293
     42 H           8.7945    1.0197   -0.6190 H       1  LIG1        0.0293
     43 H           9.3345    2.6243   -1.1414 H       1  LIG1        0.0293
     44 H           9.6984    1.1882   -2.1350 H       1  LIG1        0.0293
     45 H           3.1284    2.0366   -2.9875 H       1  LIG1        0.0810
     46 H           3.0458   -1.5380   -1.8683 H       1  LIG1        0.0243
     47 H           1.8430   -2.1203   -3.0114 H       1  LIG1        0.0243
     48 H           1.3334   -1.1821   -1.6230 H       1  LIG1        0.0243
@<TRIPOS>BOND
     1     1     2   ar
     2     2     3   ar
     3     3     4   ar
     4     4     5   ar
     5     5     6   ar
     6     5    22    1
     7     6     1   ar
     8     7     8   ar
     9     8     9   ar
    10     9    10   ar
    11    10    11   ar
    12    11    26   ar
    13    12    13   ar
    14    13    14   ar
    15    14    15   ar
    16    15    16   ar
    17    15    19    1
    18    16    17   ar
    19    17    12   ar
    20    17    18    1
    21    20    21    1
    22    20    13    1
    23    21    23    1
    24    21    22    1
    25    22    27    1
    26    22    26    1
    27    23    25   ar
    28    23    24   ar
    29    26     7   ar
    30     1    28    1
    31     2    29    1
    32     3    30    1
    33     4    31    1
    34     6    32    1
    35     7    33    1
    36     8    34    1
    37     9    35    1
    38    10    36    1
    39    11    37    1
    40    16    38    1
    41    18    39    1
    42    18    40    1
    43    18    41    1
    44    19    42    1
    45    19    43    1
    46    19    44    1
    47    21    45    1
    48    27    46    1
    49    27    47    1
    50    27    48    1
@<TRIPOS>MOLECULE
*****
 48 50 0 0 0
SMALL
GASTEIGER

@<TRIPOS>ATOM
      1 C           3.9705    0.6282   -6.6147 C.ar    1  LIG1       -0.0615
      2 C           4.6227   -0.5802   -6.8324 C.ar    1  LIG1       -0.0617
      3 C           4.5220   -1.5968   -5.8879 C.ar    1  LIG1       -0.0615
      4 C           3.7677   -1.4096   -4.7236 C.ar    1  LIG1       -0.0576
      5 C           3.0883   -0.2027   -4.4844 C.ar    1  LIG1       -0.0332
      6 C           3.2130    0.8135   -5.4557 C.ar    1  LIG1       -0.0576
      7 C           0.3693    1.8344   -3.5270 C.ar    1  LIG1       -0.0576
      8 C          -0.9096    2.1994   -3.9634 C.ar    1  LIG1       -0.0615
      9 C          -1.7630    1.2499   -4.5141 C.ar    1  LIG1       -0.0617
     10 C          -1.3328   -0.0653   -4.6399 C.ar    1  LIG1       -0.0615
     11 C          -0.0529   -0.4270   -4.2083 C.ar    1  LIG1       -0.0576
     12 N           5.3483    2.6471   -2.5925 N.ar    1  LIG1       -0.2002
     13 C           5.4577    1.3154   -2.4787 C.ar    1  LIG1        0.3190
     14 N           6.5714    0.6080   -2.7342 N.ar    1  LIG1       -0.2002
     15 C           7.6390    1.3025   -3.1644 C.ar    1  LIG1        0.0453
     16 C           7.6194    2.6755   -3.3202 C.ar    1  LIG1       -0.0193
     17 C           6.4346    3.3148   -3.0156 C.ar    1  LIG1        0.0453
     18 C           6.2978    4.8011   -3.1283 C.3     1  LIG1       -0.0221
     19 C           8.8747    0.5213   -3.4875 C.3     1  LIG1       -0.0221
     20 O           4.3909    0.5670   -2.0512 O.3     1  LIG1       -0.4519
     21 C           3.0810    1.1327   -2.3470 C.3     1  LIG1        0.1554
     22 C           2.2577    0.0695   -3.1751 C.3     1  LIG1        0.0601
     23 C           2.4517    1.5673   -0.9922 C.2     1  LIG1        0.0833
     24 O           2.3843    0.6912   -0.0815 O.co2   1  LIG1       -0.5460
     25 O           2.0725    2.7780   -0.9366 O.co2   1  LIG1       -0.5460
     26 C           0.8253    0.5095   -3.6202 C.ar    1  LIG1       -0.0332
     27 C           2.1023   -1.2228   -2.3147 C.3     1  LIG1       -0.0477
     28 H           4.0550    1.4354   -7.3353 H       1  LIG1        0.0618
     29 H           5.2190   -0.7242   -7.7277 H       1  LIG1        0.0618
     30 H           5.0447   -2.5367   -6.0410 H       1  LIG1        0.0618
     31 H           3.7499   -2.2165   -3.9976 H       1  LIG1        0.0621
     32 H           2.7275    1.7756   -5.3027 H       1  LIG1        0.0621
     33 H           0.9933    2.6215   -3.1101 H       1  LIG1        0.0621
     34 H          -1.2302    3.2320   -3.8581 H       1  LIG1        0.0618
     35 H          -2.7566    1.5362   -4.8426 H       1  LIG1        0.0618
     36 H          -1.9875   -0.8154   -5.0731 H       1  LIG1        0.0618
     37 H           0.2584   -1.4591   -4.3457 H       1  LIG1        0.0621
     38 H           8.4889    3.2192   -3.6639 H       1  LIG1        0.0653
     39 H           7.1873    5.2575   -3.5742 H       1  LIG1        0.0293
     40 H           6.1479    5.2372   -2.1357 H       1  LIG1        0.0293
     41 H           5.4381    5.0500   -3.7587 H       1  LIG1        0.0293
     42 H           8.7282   -0.5442   -3.2830 H       1  LIG1        0.0293
     43 H           9.7155    0.8715   -2.8812 H       1  LIG1        0.0293
     44 H           9.1241    0.6324   -4.5474 H       1  LIG1        0.0293
     45 H           3.1733    2.0384   -2.9598 H       1  LIG1        0.0810
     46 H           3.0481   -1.5292   -1.8539 H       1  LIG1        0.0243
     47 H           1.7514   -2.0825   -2.8966 H       1  LIG1        0.0243
     48 H           1.3701   -1.0837   -1.5115 H       1  LIG1        0.0243
@<TRIPOS>BOND
     1     1     2   ar
     2     2     3   ar
     3     3     4   ar
     4     4     5   ar
     5     5     6   ar
     6     5    22    1
     7     6     1   ar
     8     7     8   ar
     9     8     9   ar
    10     9    10   ar
    11    10    11   ar
    12    11    26   ar
    13    12    13   ar
    14    13    14   ar
    15    14    15   ar
    16    15    16   ar
    17    15    19    1
    18    16    17   ar
    19    17    12   ar
    20    17    18    1
    21    20    21    1
    22    20    13    1
    23    21    23    1
    24    21    22    1
    25    22    27    1
    26    22    26    1
    27    23    25   ar
    28    23    24   ar
    29    26     7   ar
    30     1    28    1
    31     2    29    1
    32     3    30    1
    33     4    31    1
    34     6    32    1
    35     7    33    1
    36     8    34    1
    37     9    35    1
    38    10    36    1
    39    11    37    1
    40    16    38    1
    41    18    39    1
    42    18    40    1
    43    18    41    1
    44    19    42    1
    45    19    43    1
    46    19    44    1
    47    21    45    1
    48    27    46    1
    49    27    47    1
    50    27    48    1
@<TRIPOS>MOLECULE
*****
 48 50 0 0 0
SMALL
GASTEIGER

@<TRIPOS>ATOM
      1 C           4.1963    0.6012   -6.6800 C.ar    1  LIG1       -0.0615
      2 C           4.8124   -0.6302   -6.8645 C.ar    1  LIG1       -0.0617
      3 C           4.6611   -1.6239   -5.9026 C.ar    1  LIG1       -0.0615
      4 C           3.8913   -1.3891   -4.7571 C.ar    1  LIG1       -0.0576
      5 C           3.2462   -0.1574   -4.5488 C.ar    1  LIG1       -0.0332
      6 C           3.4230    0.8323   -5.5389 C.ar    1  LIG1       -0.0576
      7 C           0.0707    1.3532   -2.9268 C.ar    1  LIG1       -0.0576
      8 C          -1.2329    1.6881   -3.3104 C.ar    1  LIG1       -0.0615
      9 C          -1.7560    1.2077   -4.5049 C.ar    1  LIG1       -0.0617
     10 C          -0.9811    0.3800   -5.3101 C.ar    1  LIG1       -0.0615
     11 C           0.3212    0.0455   -4.9244 C.ar    1  LIG1       -0.0576
     12 N           2.2370    4.4918   -3.4240 N.ar    1  LIG1       -0.2002
     13 C           2.6322    3.5647   -2.5355 C.ar    1  LIG1        0.3190
     14 N           2.4622    3.6476   -1.2070 N.ar    1  LIG1       -0.2002
     15 C           1.8520    4.7526   -0.7441 C.ar    1  LIG1        0.0453
     16 C           1.3961    5.7536   -1.5805 C.ar    1  LIG1       -0.0193
     17 C           1.6160    5.5781   -2.9323 C.ar    1  LIG1        0.0453
     18 C           1.1390    6.5807   -3.9357 C.3     1  LIG1       -0.0221
     19 C           1.6684    4.8608    0.7385 C.3     1  LIG1       -0.0221
     20 O           3.2099    2.4582   -3.0949 O.3     1  LIG1       -0.4519
     21 C           3.0373    1.2154   -2.3740 C.3     1  LIG1        0.1554
     22 C           2.3531    0.1335   -3.3004 C.3     1  LIG1        0.0601
     23 C           4.4023    0.7586   -1.7878 C.2     1  LIG1        0.0833
     24 O           5.4548    1.1753   -2.3496 O.co2   1  LIG1       -0.5460
     25 O           4.3109    0.0153   -0.7593 O.co2   1  LIG1       -0.5460
     26 C           0.8946    0.5500   -3.7383 C.ar    1  LIG1       -0.0332
     27 C           2.0885   -1.1520   -2.4589 C.3     1  LIG1       -0.0477
     28 H           4.3250    1.3962   -7.4084 H       1  LIG1        0.0618
     29 H           5.4269   -0.8067   -7.7407 H       1  LIG1        0.0618
     30 H           5.1599   -2.5808   -6.0255 H       1  LIG1        0.0618
     31 H           3.8297   -2.1879   -4.0242 H       1  LIG1        0.0621
     32 H           2.9570    1.8098   -5.4221 H       1  LIG1        0.0621
     33 H           0.4212    1.7314   -1.9709 H       1  LIG1        0.0621
     34 H          -1.8324    2.3226   -2.6649 H       1  LIG1        0.0618
     35 H          -2.7658    1.4700   -4.8027 H       1  LIG1        0.0618
     36 H          -1.3829   -0.0115   -6.2389 H       1  LIG1        0.0618
     37 H           0.8902   -0.6196   -5.5706 H       1  LIG1        0.0621
     38 H           0.8943    6.6293   -1.1925 H       1  LIG1        0.0653
     39 H           0.7550    7.4862   -3.4541 H       1  LIG1        0.0293
     40 H           0.3368    6.1464   -4.5404 H       1  LIG1        0.0293
     41 H           1.9623    6.8713   -4.5956 H       1  LIG1        0.0293
     42 H           2.0938    3.9916    1.2503 H       1  LIG1        0.0293
     43 H           0.6034    4.9137    0.9844 H       1  LIG1        0.0293
     44 H           2.1694    5.7575    1.1171 H       1  LIG1        0.0293
     45 H           2.4026    1.3535   -1.4899 H       1  LIG1        0.0810
     46 H           3.0075   -1.6207   -2.0950 H       1  LIG1        0.0243
     47 H           1.5546   -1.9150   -3.0406 H       1  LIG1        0.0243
     48 H           1.4716   -0.9321   -1.5786 H       1  LIG1        0.0243
@<TRIPOS>BOND
     1     1     2   ar
     2     2     3   ar
     3     3     4   ar
     4     4     5   ar
     5     5     6   ar
     6     5    22    1
     7     6     1   ar
     8     7     8   ar
     9     8     9   ar
    10     9    10   ar
    11    10    11   ar
    12    11    26   ar
    13    12    13   ar
    14    13    14   ar
    15    14    15   ar
    16    15    16   ar
    17    15    19    1
    18    16    17   ar
    19    17    12   ar
    20    17    18    1
    21    20    21    1
    22    20    13    1
    23    21    23    1
    24    21    22    1
    25    22    27    1
    26    22    26    1
    27    23    25   ar
    28    23    24   ar
    29    26     7   ar
    30     1    28    1
    31     2    29    1
    32     3    30    1
    33     4    31    1
    34     6    32    1
    35     7    33    1
    36     8    34    1
    37     9    35    1
    38    10    36    1
    39    11    37    1
    40    16    38    1
    41    18    39    1
    42    18    40    1
    43    18    41    1
    44    19    42    1
    45    19    43    1
    46    19    44    1
    47    21    45    1
    48    27    46    1
    49    27    47    1
    50    27    48    1
@<TRIPOS>MOLECULE
*****
 48 50 0 0 0
SMALL
GASTEIGER

@<TRIPOS>ATOM
      1 C           3.7840    0.4317   -6.7481 C.ar    1  LIG1       -0.0615
      2 C           4.6713   -0.6365   -6.8134 C.ar    1  LIG1       -0.0617
      3 C           4.7990   -1.4918   -5.7234 C.ar    1  LIG1       -0.0615
      4 C           4.0304   -1.2873   -4.5727 C.ar    1  LIG1       -0.0576
      5 C           3.1124   -0.2250   -4.4856 C.ar    1  LIG1       -0.0332
      6 C           3.0219    0.6404   -5.5955 C.ar    1  LIG1       -0.0576
      7 C           0.3826    1.8214   -3.5136 C.ar    1  LIG1       -0.0576
      8 C          -0.9060    2.1796   -3.9253 C.ar    1  LIG1       -0.0615
      9 C          -1.7690    1.2233   -4.4480 C.ar    1  LIG1       -0.0617
     10 C          -1.3394   -0.0930   -4.5693 C.ar    1  LIG1       -0.0615
     11 C          -0.0504   -0.4491   -4.1596 C.ar    1  LIG1       -0.0576
     12 N           6.5857    0.5052   -2.6846 N.ar    1  LIG1       -0.2002
     13 C           5.4949    1.2568   -2.4550 C.ar    1  LIG1        0.3190
     14 N           5.4342    2.5884   -2.5905 N.ar    1  LIG1       -0.2002
     15 C           6.5490    3.2074   -3.0122 C.ar    1  LIG1        0.0453
     16 C           7.7113    2.5198   -3.3023 C.ar    1  LIG1       -0.0193
     17 C           7.6829    1.1513   -3.1175 C.ar    1  LIG1        0.0453
     18 C           8.8783    0.3026   -3.4193 C.3     1  LIG1       -0.0221
     19 C           6.4853    4.6956   -3.1646 C.3     1  LIG1       -0.0221
     20 O           4.4011    0.5542   -2.0205 O.3     1  LIG1       -0.4519
     21 C           3.1121    1.1344   -2.3705 C.3     1  LIG1        0.1554
     22 C           2.2815    0.0624   -3.1781 C.3     1  LIG1        0.0601
     23 C           2.4624    1.6169   -1.0421 C.2     1  LIG1        0.0833
     24 O           2.2777    0.7453   -0.1434 O.co2   1  LIG1       -0.5460
     25 O           2.1834    2.8548   -0.9954 O.co2   1  LIG1       -0.5460
     26 C           0.8384    0.4953   -3.6008 C.ar    1  LIG1       -0.0332
     27 C           2.1373   -1.2355   -2.3217 C.3     1  LIG1       -0.0477
     28 H           3.6898    1.1170   -7.5850 H       1  LIG1        0.0618
     29 H           5.2754   -0.7913   -7.7016 H       1  LIG1        0.0618
     30 H           5.5134   -2.3092   -5.7505 H       1  LIG1        0.0618
     31 H           4.1976   -1.9475   -3.7255 H       1  LIG1        0.0621
     32 H           2.3600    1.5028   -5.5660 H       1  LIG1        0.0621
     33 H           1.0155    2.6144   -3.1225 H       1  LIG1        0.0621
     34 H          -1.2263    3.2125   -3.8238 H       1  LIG1        0.0618
     35 H          -2.7702    1.5043   -4.7576 H       1  LIG1        0.0618
     36 H          -2.0023   -0.8485   -4.9806 H       1  LIG1        0.0618
     37 H           0.2593   -1.4827   -4.2904 H       1  LIG1        0.0621
     38 H           8.5975    3.0316   -3.6517 H       1  LIG1        0.0653
     39 H           9.7586    0.9095   -3.6527 H       1  LIG1        0.0293
     40 H           8.6669   -0.3423   -4.2780 H       1  LIG1        0.0293
     41 H           9.1192   -0.3250   -2.5557 H       1  LIG1        0.0293
     42 H           5.5001    5.0767   -2.8769 H       1  LIG1        0.0293
     43 H           6.6686    4.9771   -4.2061 H       1  LIG1        0.0293
     44 H           7.2343    5.1737   -2.5258 H       1  LIG1        0.0293
     45 H           3.2353    2.0144   -3.0167 H       1  LIG1        0.0810
     46 H           3.0670   -1.5070   -1.8101 H       1  LIG1        0.0243
     47 H           1.8556   -2.1056   -2.9262 H       1  LIG1        0.0243
     48 H           1.3639   -1.1265   -1.5530 H       1  LIG1        0.0243
@<TRIPOS>BOND
     1     1     2   ar
     2     2     3   ar
     3     3     4   ar
     4     4     5   ar
     5     5     6   ar
     6     5    22    1
     7     6     1   ar
     8     7     8   ar
     9     8     9   ar
    10     9    10   ar
    11    10    11   ar
    12    11    26   ar
    13    12    13   ar
    14    13    14   ar
    15    14    15   ar
    16    15    16   ar
    17    15    19    1
    18    16    17   ar
    19    17    12   ar
    20    17    18    1
    21    20    21    1
    22    20    13    1
    23    21    23    1
    24    21    22    1
    25    22    27    1
    26    22    26    1
    27    23    25   ar
    28    23    24   ar
    29    26     7   ar
    30     1    28    1
    31     2    29    1
    32     3    30    1
    33     4    31    1
    34     6    32    1
    35     7    33    1
    36     8    34    1
    37     9    35    1
    38    10    36    1
    39    11    37    1
    40    16    38    1
    41    18    39    1
    42    18    40    1
    43    18    41    1
    44    19    42    1
    45    19    43    1
    46    19    44    1
    47    21    45    1
    48    27    46    1
    49    27    47    1
    50    27    48    1
@<TRIPOS>MOLECULE
*****
 48 50 0 0 0
SMALL
GASTEIGER

@<TRIPOS>ATOM
      1 C           3.9184    0.7700   -6.5777 C.ar    1  LIG1       -0.0615
      2 C           4.8382   -0.2687   -6.6761 C.ar    1  LIG1       -0.0617
      3 C           4.9580   -1.1811   -5.6332 C.ar    1  LIG1       -0.0615
      4 C           4.1433   -1.0678   -4.5021 C.ar    1  LIG1       -0.0576
      5 C           3.1824   -0.0453   -4.3899 C.ar    1  LIG1       -0.0332
      6 C           3.1104    0.8886   -5.4426 C.ar    1  LIG1       -0.0576
      7 C           0.2961    1.8000   -3.4083 C.ar    1  LIG1       -0.0576
      8 C          -0.9695    2.1572   -3.8887 C.ar    1  LIG1       -0.0615
      9 C          -1.7301    1.2475   -4.6151 C.ar    1  LIG1       -0.0617
     10 C          -1.2211   -0.0197   -4.8702 C.ar    1  LIG1       -0.0615
     11 C           0.0416   -0.3757   -4.3866 C.ar    1  LIG1       -0.0576
     12 N           6.4883    1.1112   -1.4456 N.ar    1  LIG1       -0.2002
     13 C           5.1893    1.4195   -1.2835 C.ar    1  LIG1        0.3190
     14 N           4.7338    2.4488   -0.5640 N.ar    1  LIG1       -0.2002
     15 C           5.6377    3.1860    0.0994 C.ar    1  LIG1        0.0453
     16 C           6.9937    2.9525   -0.0047 C.ar    1  LIG1       -0.0193
     17 C           7.3776    1.8956   -0.8078 C.ar    1  LIG1        0.0453
     18 C           8.8244    1.5751   -1.0208 C.3     1  LIG1       -0.0221
     19 C           5.1101    4.2592    0.9999 C.3     1  LIG1       -0.0221
     20 O           4.3121    0.5440   -1.8740 O.3     1  LIG1       -0.4519
     21 C           2.9697    1.0693   -2.1165 C.3     1  LIG1        0.1554
     22 C           2.2470    0.0865   -3.1278 C.3     1  LIG1        0.0601
     23 C           2.1980    1.2099   -0.7626 C.2     1  LIG1        0.0833
     24 O           2.2683    0.2294    0.0379 O.co2   1  LIG1       -0.5460
     25 O           1.5640    2.3006   -0.6102 O.co2   1  LIG1       -0.5460
     26 C           0.8260    0.5182   -3.6231 C.ar    1  LIG1       -0.0332
     27 C           2.0740   -1.3068   -2.4406 C.3     1  LIG1       -0.0477
     28 H           3.8280    1.4973   -7.3796 H       1  LIG1        0.0618
     29 H           5.4710   -0.3576   -7.5529 H       1  LIG1        0.0618
     30 H           5.6936   -1.9788   -5.6851 H       1  LIG1        0.0618
     31 H           4.2926   -1.7793   -3.6938 H       1  LIG1        0.0621
     32 H           2.4126    1.7212   -5.3923 H       1  LIG1        0.0621
     33 H           0.8488    2.5552   -2.8554 H       1  LIG1        0.0621
     34 H          -1.3541    3.1511   -3.6780 H       1  LIG1        0.0618
     35 H          -2.7137    1.5275   -4.9782 H       1  LIG1        0.0618
     36 H          -1.8007   -0.7367   -5.4435 H       1  LIG1        0.0618
     37 H           0.4187   -1.3670   -4.6256 H       1  LIG1        0.0621
     38 H           7.7129    3.5605    0.5273 H       1  LIG1        0.0653
     39 H           9.4710    2.1513   -0.3500 H       1  LIG1        0.0293
     40 H           9.1064    1.8067   -2.0528 H       1  LIG1        0.0293
     41 H           9.0054    0.5125   -0.8335 H       1  LIG1        0.0293
     42 H           4.0157    4.3034    0.9577 H       1  LIG1        0.0293
     43 H           5.5040    5.2343    0.7031 H       1  LIG1        0.0293
     44 H           5.3988    4.0553    2.0366 H       1  LIG1        0.0293
     45 H           3.0770    2.0568   -2.5918 H       1  LIG1        0.0810
     46 H           2.9700   -1.6127   -1.8882 H       1  LIG1        0.0243
     47 H           1.8679   -2.1083   -3.1593 H       1  LIG1        0.0243
     48 H           1.2386   -1.3030   -1.7302 H       1  LIG1        0.0243
@<TRIPOS>BOND
     1     1     2   ar
     2     2     3   ar
     3     3     4   ar
     4     4     5   ar
     5     5     6   ar
     6     5    22    1
     7     6     1   ar
     8     7     8   ar
     9     8     9   ar
    10     9    10   ar
    11    10    11   ar
    12    11    26   ar
    13    12    13   ar
    14    13    14   ar
    15    14    15   ar
    16    15    16   ar
    17    15    19    1
    18    16    17   ar
    19    17    12   ar
    20    17    18    1
    21    20    21    1
    22    20    13    1
    23    21    23    1
    24    21    22    1
    25    22    27    1
    26    22    26    1
    27    23    25   ar
    28    23    24   ar
    29    26     7   ar
    30     1    28    1
    31     2    29    1
    32     3    30    1
    33     4    31    1
    34     6    32    1
    35     7    33    1
    36     8    34    1
    37     9    35    1
    38    10    36    1
    39    11    37    1
    40    16    38    1
    41    18    39    1
    42    18    40    1
    43    18    41    1
    44    19    42    1
    45    19    43    1
    46    19    44    1
    47    21    45    1
    48    27    46    1
    49    27    47    1
    50    27    48    1
@<TRIPOS>MOLECULE
*****
 48 50 0 0 0
SMALL
GASTEIGER

@<TRIPOS>ATOM
      1 C           3.9844    0.7397   -6.5815 C.ar    1  LIG1       -0.0615
      2 C           4.6432   -0.4613   -6.8228 C.ar    1  LIG1       -0.0617
      3 C           4.5419   -1.5005   -5.9022 C.ar    1  LIG1       -0.0615
      4 C           3.7788   -1.3433   -4.7409 C.ar    1  LIG1       -0.0576
      5 C           3.0919   -0.1453   -4.4800 C.ar    1  LIG1       -0.0332
      6 C           3.2194    0.8963   -5.4234 C.ar    1  LIG1       -0.0576
      7 C           0.0209   -0.2676   -4.4093 C.ar    1  LIG1       -0.0576
      8 C          -1.2456    0.1278   -4.8483 C.ar    1  LIG1       -0.0615
      9 C          -1.7370    1.3821   -4.5076 C.ar    1  LIG1       -0.0617
     10 C          -0.9566    2.2376   -3.7373 C.ar    1  LIG1       -0.0615
     11 C           0.3138    1.8418   -3.3020 C.ar    1  LIG1       -0.0576
     12 N           5.3431    2.6069   -2.6025 N.ar    1  LIG1       -0.2002
     13 C           5.4676    1.2770   -2.4831 C.ar    1  LIG1        0.3190
     14 N           6.5914    0.5840   -2.7339 N.ar    1  LIG1       -0.2002
     15 C           7.6537    1.2912   -3.1576 C.ar    1  LIG1        0.0453
     16 C           7.6187    2.6635   -3.3137 C.ar    1  LIG1       -0.0193
     17 C           6.4236    3.2881   -3.0197 C.ar    1  LIG1        0.0453
     18 C           6.2712    4.7729   -3.1307 C.3     1  LIG1       -0.0221
     19 C           8.9010    0.5254   -3.4734 C.3     1  LIG1       -0.0221
     20 O           4.4069    0.5128   -2.0667 O.3     1  LIG1       -0.4519
     21 C           3.0891    1.0940   -2.2891 C.3     1  LIG1        0.1554
     22 C           2.2481    0.0899   -3.1716 C.3     1  LIG1        0.0601
     23 C           2.5109    1.4380   -0.8855 C.2     1  LIG1        0.0833
     24 O           2.4245    0.4914   -0.0503 O.co2   1  LIG1       -0.5460
     25 O           2.1871    2.6542   -0.7169 O.co2   1  LIG1       -0.5460
     26 C           0.8295    0.5752   -3.6136 C.ar    1  LIG1       -0.0332
     27 C           2.0338   -1.2360   -2.3828 C.3     1  LIG1       -0.0477
     28 H           4.0703    1.5635   -7.2837 H       1  LIG1        0.0618
     29 H           5.2463   -0.5823   -7.7173 H       1  LIG1        0.0618
     30 H           5.0716   -2.4329   -6.0727 H       1  LIG1        0.0618
     31 H           3.7596   -2.1649   -4.0315 H       1  LIG1        0.0621
     32 H           2.7281    1.8518   -5.2478 H       1  LIG1        0.0621
     33 H           0.3861   -1.2480   -4.7076 H       1  LIG1        0.0621
     34 H          -1.8413   -0.5469   -5.4555 H       1  LIG1        0.0618
     35 H          -2.7220    1.6942   -4.8392 H       1  LIG1        0.0618
     36 H          -1.3276    3.2208   -3.4611 H       1  LIG1        0.0618
     37 H           0.8790    2.5586   -2.7127 H       1  LIG1        0.0621
     38 H           8.4840    3.2179   -3.6498 H       1  LIG1        0.0653
     39 H           7.1387    5.2338   -3.6133 H       1  LIG1        0.0293
     40 H           6.1573    5.2102   -2.1339 H       1  LIG1        0.0293
     41 H           5.3860    5.0145   -3.7274 H       1  LIG1        0.0293
     42 H           8.7660   -0.5426   -3.2725 H       1  LIG1        0.0293
     43 H           9.7333    0.8844   -2.8601 H       1  LIG1        0.0293
     44 H           9.1573    0.6420   -4.5313 H       1  LIG1        0.0293
     45 H           3.1579    2.0388   -2.8435 H       1  LIG1        0.0810
     46 H           2.9606   -1.5960   -1.9218 H       1  LIG1        0.0243
     47 H           1.6615   -2.0491   -3.0170 H       1  LIG1        0.0243
     48 H           1.2911   -1.1130   -1.5863 H       1  LIG1        0.0243
@<TRIPOS>BOND
     1     1     2   ar
     2     2     3   ar
     3     3     4   ar
     4     4     5   ar
     5     5     6   ar
     6     5    22    1
     7     6     1   ar
     8     7     8   ar
     9     8     9   ar
    10     9    10   ar
    11    10    11   ar
    12    11    26   ar
    13    12    13   ar
    14    13    14   ar
    15    14    15   ar
    16    15    16   ar
    17    15    19    1
    18    16    17   ar
    19    17    12   ar
    20    17    18    1
    21    20    21    1
    22    20    13    1
    23    21    23    1
    24    21    22    1
    25    22    27    1
    26    22    26    1
    27    23    25   ar
    28    23    24   ar
    29    26     7   ar
    30     1    28    1
    31     2    29    1
    32     3    30    1
    33     4    31    1
    34     6    32    1
    35     7    33    1
    36     8    34    1
    37     9    35    1
    38    10    36    1
    39    11    37    1
    40    16    38    1
    41    18    39    1
    42    18    40    1
    43    18    41    1
    44    19    42    1
    45    19    43    1
    46    19    44    1
    47    21    45    1
    48    27    46    1
    49    27    47    1
    50    27    48    1
@<TRIPOS>MOLECULE
*****
 48 50 0 0 0
SMALL
GASTEIGER

@<TRIPOS>ATOM
      1 C           4.5640   -1.5913   -5.9400 C.ar    1  LIG1       -0.0615
      2 C           4.5828   -0.6049   -6.9220 C.ar    1  LIG1       -0.0617
      3 C           3.8708    0.5738   -6.7281 C.ar    1  LIG1       -0.0615
      4 C           3.1345    0.7597   -5.5559 C.ar    1  LIG1       -0.0576
      5 C           3.0874   -0.2296   -4.5507 C.ar    1  LIG1       -0.0332
      6 C           3.8292   -1.4043   -4.7644 C.ar    1  LIG1       -0.0576
      7 C           0.3169    1.7720   -3.3299 C.ar    1  LIG1       -0.0576
      8 C          -0.9652    2.1530   -3.7440 C.ar    1  LIG1       -0.0615
      9 C          -1.7514    1.2859   -4.4960 C.ar    1  LIG1       -0.0617
     10 C          -1.2552    0.0342   -4.8389 C.ar    1  LIG1       -0.0615
     11 C           0.0227   -0.3475   -4.4210 C.ar    1  LIG1       -0.0576
     12 N           6.5923    1.1043   -1.6810 N.ar    1  LIG1       -0.2002
     13 C           5.4898    1.3165   -2.4177 C.ar    1  LIG1        0.3190
     14 N           5.4328    2.1057   -3.5029 N.ar    1  LIG1       -0.2002
     15 C           6.5463    2.7837   -3.8236 C.ar    1  LIG1        0.0453
     16 C           7.7150    2.6675   -3.0988 C.ar    1  LIG1       -0.0193
     17 C           7.6907    1.8036   -2.0211 C.ar    1  LIG1        0.0453
     18 C           8.9029    1.5978   -1.1670 C.3     1  LIG1       -0.0221
     19 C           6.4823    3.6587   -5.0364 C.3     1  LIG1       -0.0221
     20 O           4.4326    0.4870   -2.1315 O.3     1  LIG1       -0.4519
     21 C           3.1237    1.0689   -2.3973 C.3     1  LIG1        0.1554
     22 C           2.2707    0.0381   -3.2309 C.3     1  LIG1        0.0601
     23 C           2.5630    1.5192   -1.0177 C.2     1  LIG1        0.0833
     24 O           2.2368    0.6148   -0.1985 O.co2   1  LIG1       -0.5460
     25 O           2.4929    2.7780   -0.8590 O.co2   1  LIG1       -0.5460
     26 C           0.8389    0.5090   -3.6474 C.ar    1  LIG1       -0.0332
     27 C           2.0791   -1.2740   -2.4129 C.3     1  LIG1       -0.0477
     28 H           5.1360   -2.5046   -6.0745 H       1  LIG1        0.0618
     29 H           5.1646   -0.7471   -7.8269 H       1  LIG1        0.0618
     30 H           3.8954    1.3604   -7.4757 H       1  LIG1        0.0618
     31 H           2.6086    1.7022   -5.4144 H       1  LIG1        0.0621
     32 H           3.8729   -2.1823   -4.0079 H       1  LIG1        0.0621
     33 H           0.8852    2.4970   -2.7533 H       1  LIG1        0.0621
     34 H          -1.3412    3.1340   -3.4663 H       1  LIG1        0.0618
     35 H          -2.7452    1.5872   -4.8117 H       1  LIG1        0.0618
     36 H          -1.8554   -0.6492   -5.4314 H       1  LIG1        0.0618
     37 H           0.3917   -1.3262   -4.7187 H       1  LIG1        0.0621
     38 H           8.6046    3.2195   -3.3692 H       1  LIG1        0.0653
     39 H           9.7708    2.1389   -1.5572 H       1  LIG1        0.0293
     40 H           9.1566    0.5338   -1.1295 H       1  LIG1        0.0293
     41 H           8.7061    1.9524   -0.1506 H       1  LIG1        0.0293
     42 H           5.4656    3.6905   -5.4419 H       1  LIG1        0.0293
     43 H           7.1468    3.2709   -5.8148 H       1  LIG1        0.0293
     44 H           6.7795    4.6814   -4.7855 H       1  LIG1        0.0293
     45 H           3.2072    1.9880   -2.9933 H       1  LIG1        0.0810
     46 H           3.0098   -1.6070   -1.9402 H       1  LIG1        0.0243
     47 H           1.7245   -2.1060   -3.0330 H       1  LIG1        0.0243
     48 H           1.3306   -1.1523   -1.6222 H       1  LIG1        0.0243
@<TRIPOS>BOND
     1     1     2   ar
     2     2     3   ar
     3     3     4   ar
     4     4     5   ar
     5     5     6   ar
     6     5    22    1
     7     6     1   ar
     8     7     8   ar
     9     8     9   ar
    10     9    10   ar
    11    10    11   ar
    12    11    26   ar
    13    12    13   ar
    14    13    14   ar
    15    14    15   ar
    16    15    16   ar
    17    15    19    1
    18    16    17   ar
    19    17    12   ar
    20    17    18    1
    21    20    21    1
    22    20    13    1
    23    21    23    1
    24    21    22    1
    25    22    27    1
    26    22    26    1
    27    23    25   ar
    28    23    24   ar
    29    26     7   ar
    30     1    28    1
    31     2    29    1
    32     3    30    1
    33     4    31    1
    34     6    32    1
    35     7    33    1
    36     8    34    1
    37     9    35    1
    38    10    36    1
    39    11    37    1
    40    16    38    1
    41    18    39    1
    42    18    40    1
    43    18    41    1
    44    19    42    1
    45    19    43    1
    46    19    44    1
    47    21    45    1
    48    27    46    1
    49    27    47    1
    50    27    48    1
@<TRIPOS>MOLECULE
*****
 48 50 0 0 0
SMALL
GASTEIGER

@<TRIPOS>ATOM
      1 C           3.8836    0.6385   -6.6858 C.ar    1  LIG1       -0.0615
      2 C           4.7365   -0.4526   -6.8072 C.ar    1  LIG1       -0.0617
      3 C           4.8146   -1.3849   -5.7774 C.ar    1  LIG1       -0.0615
      4 C           4.0280   -1.2352   -4.6306 C.ar    1  LIG1       -0.0576
      5 C           3.1424   -0.1510   -4.4896 C.ar    1  LIG1       -0.0332
      6 C           3.1038    0.7927   -5.5365 C.ar    1  LIG1       -0.0576
      7 C           0.3091    1.7778   -3.3722 C.ar    1  LIG1       -0.0576
      8 C          -0.9748    2.1311   -3.8045 C.ar    1  LIG1       -0.0615
      9 C          -1.7494    1.2294   -4.5266 C.ar    1  LIG1       -0.0617
     10 C          -1.2376   -0.0279   -4.8234 C.ar    1  LIG1       -0.0615
     11 C           0.0422   -0.3815   -4.3865 C.ar    1  LIG1       -0.0576
     12 N           6.5653    0.4759   -2.6588 N.ar    1  LIG1       -0.2002
     13 C           5.4722    1.2258   -2.4334 C.ar    1  LIG1        0.3190
     14 N           5.4068    2.5558   -2.5829 N.ar    1  LIG1       -0.2002
     15 C           6.5185    3.1738   -3.0145 C.ar    1  LIG1        0.0453
     16 C           7.6822    2.4870   -3.3012 C.ar    1  LIG1       -0.0193
     17 C           7.6588    1.1208   -3.1021 C.ar    1  LIG1        0.0453
     18 C           8.8555    0.2731   -3.4005 C.3     1  LIG1       -0.0221
     19 C           6.4513    4.6604   -3.1797 C.3     1  LIG1       -0.0221
     20 O           4.3824    0.5216   -1.9895 O.3     1  LIG1       -0.4519
     21 C           3.0856    1.1025   -2.3115 C.3     1  LIG1        0.1554
     22 C           2.2785    0.0696   -3.1906 C.3     1  LIG1        0.0601
     23 C           2.4383    1.5015   -0.9545 C.2     1  LIG1        0.0833
     24 O           2.2216    0.5715   -0.1239 O.co2   1  LIG1       -0.5460
     25 O           2.1904    2.7397   -0.8164 O.co2   1  LIG1       -0.5460
     26 C           0.8445    0.5076   -3.6355 C.ar    1  LIG1       -0.0332
     27 C           2.1052   -1.2669   -2.4051 C.3     1  LIG1       -0.0477
     28 H           3.8280    1.3816   -7.4755 H       1  LIG1        0.0618
     29 H           5.3534   -0.5673   -7.6925 H       1  LIG1        0.0618
     30 H           5.5017   -2.2224   -5.8477 H       1  LIG1        0.0618
     31 H           4.1528   -1.9588   -3.8285 H       1  LIG1        0.0621
     32 H           2.4650    1.6702   -5.4571 H       1  LIG1        0.0621
     33 H           0.8698    2.5309   -2.8247 H       1  LIG1        0.0621
     34 H          -1.3614    3.1178   -3.5630 H       1  LIG1        0.0618
     35 H          -2.7450    1.5082   -4.8548 H       1  LIG1        0.0618
     36 H          -1.8282   -0.7382   -5.3934 H       1  LIG1        0.0618
     37 H           0.4224   -1.3657   -4.6510 H       1  LIG1        0.0621
     38 H           8.5657    2.9981   -3.6589 H       1  LIG1        0.0653
     39 H           9.7371    0.8808   -3.6299 H       1  LIG1        0.0293
     40 H           8.6477   -0.3713   -4.2612 H       1  LIG1        0.0293
     41 H           9.0942   -0.3560   -2.5369 H       1  LIG1        0.0293
     42 H           5.4646    5.0415   -2.8969 H       1  LIG1        0.0293
     43 H           6.6358    4.9336   -4.2234 H       1  LIG1        0.0293
     44 H           7.1981    5.1458   -2.5437 H       1  LIG1        0.0293
     45 H           3.1930    2.0238   -2.9003 H       1  LIG1        0.0810
     46 H           3.0238   -1.5732   -1.8928 H       1  LIG1        0.0243
     47 H           1.8202   -2.1013   -3.0572 H       1  LIG1        0.0243
     48 H           1.3182   -1.1883   -1.6463 H       1  LIG1        0.0243
@<TRIPOS>BOND
     1     1     2   ar
     2     2     3   ar
     3     3     4   ar
     4     4     5   ar
     5     5     6   ar
     6     5    22    1
     7     6     1   ar
     8     7     8   ar
     9     8     9   ar
    10     9    10   ar
    11    10    11   ar
    12    11    26   ar
    13    12    13   ar
    14    13    14   ar
    15    14    15   ar
    16    15    16   ar
    17    15    19    1
    18    16    17   ar
    19    17    12   ar
    20    17    18    1
    21    20    21    1
    22    20    13    1
    23    21    23    1
    24    21    22    1
    25    22    27    1
    26    22    26    1
    27    23    25   ar
    28    23    24   ar
    29    26     7   ar
    30     1    28    1
    31     2    29    1
    32     3    30    1
    33     4    31    1
    34     6    32    1
    35     7    33    1
    36     8    34    1
    37     9    35    1
    38    10    36    1
    39    11    37    1
    40    16    38    1
    41    18    39    1
    42    18    40    1
    43    18    41    1
    44    19    42    1
    45    19    43    1
    46    19    44    1
    47    21    45    1
    48    27    46    1
    49    27    47    1
    50    27    48    1
@<TRIPOS>MOLECULE
*****
 48 50 0 0 0
SMALL
GASTEIGER

@<TRIPOS>ATOM
      1 C           4.5449   -1.5146   -5.9283 C.ar    1  LIG1       -0.0615
      2 C           4.6675   -0.4610   -6.8302 C.ar    1  LIG1       -0.0617
      3 C           4.0254    0.7450   -6.5714 C.ar    1  LIG1       -0.0615
      4 C           3.2546    0.8920   -5.4166 C.ar    1  LIG1       -0.0576
      5 C           3.1106   -0.1603   -4.4880 C.ar    1  LIG1       -0.0332
      6 C           3.7803   -1.3645   -4.7660 C.ar    1  LIG1       -0.0576
      7 C           0.2644    1.7546   -3.3151 C.ar    1  LIG1       -0.0576
      8 C          -1.0147    2.1123   -3.7586 C.ar    1  LIG1       -0.0615
      9 C          -1.7577    1.2414   -4.5484 C.ar    1  LIG1       -0.0617
     10 C          -1.2205    0.0093   -4.9005 C.ar    1  LIG1       -0.0615
     11 C           0.0544   -0.3490   -4.4539 C.ar    1  LIG1       -0.0576
     12 N           5.2442    2.4743   -3.1632 N.ar    1  LIG1       -0.2002
     13 C           5.4459    1.3388   -2.4769 C.ar    1  LIG1        0.3190
     14 N           6.6528    0.8050   -2.2214 N.ar    1  LIG1       -0.2002
     15 C           7.7230    1.4812   -2.6761 C.ar    1  LIG1        0.0453
     16 C           7.6105    2.6618   -3.3846 C.ar    1  LIG1       -0.0193
     17 C           6.3313    3.1269   -3.6072 C.ar    1  LIG1        0.0453
     18 C           6.0805    4.3885   -4.3715 C.3     1  LIG1       -0.0221
     19 C           9.0717    0.8925   -2.3977 C.3     1  LIG1       -0.0221
     20 O           4.3875    0.5721   -2.0549 O.3     1  LIG1       -0.4519
     21 C           3.0548    1.1014   -2.3028 C.3     1  LIG1        0.1554
     22 C           2.2546    0.0656   -3.1855 C.3     1  LIG1        0.0601
     23 C           2.4618    1.4553   -0.9079 C.2     1  LIG1        0.0833
     24 O           2.3027    0.5073   -0.0871 O.co2   1  LIG1       -0.5460
     25 O           2.2069    2.6874   -0.7304 O.co2   1  LIG1       -0.5460
     26 C           0.8265    0.5112   -3.6401 C.ar    1  LIG1       -0.0332
     27 C           2.0682   -1.2603   -2.3896 C.3     1  LIG1       -0.0477
     28 H           5.0569   -2.4546   -6.1153 H       1  LIG1        0.0618
     29 H           5.2732   -0.5765   -7.7237 H       1  LIG1        0.0618
     30 H           4.1295    1.5798   -7.2564 H       1  LIG1        0.0618
     31 H           2.7778    1.8512   -5.2259 H       1  LIG1        0.0621
     32 H           3.7411   -2.2013   -4.0747 H       1  LIG1        0.0621
     33 H           0.7972    2.4815   -2.7082 H       1  LIG1        0.0621
     34 H          -1.4216    3.0786   -3.4729 H       1  LIG1        0.0618
     35 H          -2.7493    1.5242   -4.8857 H       1  LIG1        0.0618
     36 H          -1.7869   -0.6774   -5.5218 H       1  LIG1        0.0618
     37 H           0.4552   -1.3127   -4.7590 H       1  LIG1        0.0621
     38 H           8.4814    3.1900   -3.7474 H       1  LIG1        0.0653
     39 H           7.0129    4.8512   -4.7102 H       1  LIG1        0.0293
     40 H           5.5511    5.1087   -3.7397 H       1  LIG1        0.0293
     41 H           5.4678    4.1732   -5.2530 H       1  LIG1        0.0293
     42 H           8.9839   -0.0219   -1.8020 H       1  LIG1        0.0293
     43 H           9.6885    1.6038   -1.8399 H       1  LIG1        0.0293
     44 H           9.5738    0.6402   -3.3368 H       1  LIG1        0.0293
     45 H           3.0894    2.0489   -2.8536 H       1  LIG1        0.0810
     46 H           3.0027   -1.5955   -1.9259 H       1  LIG1        0.0243
     47 H           1.7131   -2.0846   -3.0193 H       1  LIG1        0.0243
     48 H           1.3194   -1.1522   -1.5971 H       1  LIG1        0.0243
@<TRIPOS>BOND
     1     1     2   ar
     2     2     3   ar
     3     3     4   ar
     4     4     5   ar
     5     5     6   ar
     6     5    22    1
     7     6     1   ar
     8     7     8   ar
     9     8     9   ar
    10     9    10   ar
    11    10    11   ar
    12    11    26   ar
    13    12    13   ar
    14    13    14   ar
    15    14    15   ar
    16    15    16   ar
    17    15    19    1
    18    16    17   ar
    19    17    12   ar
    20    17    18    1
    21    20    21    1
    22    20    13    1
    23    21    23    1
    24    21    22    1
    25    22    27    1
    26    22    26    1
    27    23    25   ar
    28    23    24   ar
    29    26     7   ar
    30     1    28    1
    31     2    29    1
    32     3    30    1
    33     4    31    1
    34     6    32    1
    35     7    33    1
    36     8    34    1
    37     9    35    1
    38    10    36    1
    39    11    37    1
    40    16    38    1
    41    18    39    1
    42    18    40    1
    43    18    41    1
    44    19    42    1
    45    19    43    1
    46    19    44    1
    47    21    45    1
    48    27    46    1
    49    27    47    1
    50    27    48    1
@<TRIPOS>MOLECULE
*****
 48 50 0 0 0
SMALL
GASTEIGER

@<TRIPOS>ATOM
      1 C           4.0027    0.7054   -6.6076 C.ar    1  LIG1       -0.0615
      2 C           4.6825   -0.4864   -6.8337 C.ar    1  LIG1       -0.0617
      3 C           4.5965   -1.5168   -5.9017 C.ar    1  LIG1       -0.0615
      4 C           3.8271   -1.3598   -4.7440 C.ar    1  LIG1       -0.0576
      5 C           3.1170   -0.1715   -4.4995 C.ar    1  LIG1       -0.0332
      6 C           3.2305    0.8612   -5.4541 C.ar    1  LIG1       -0.0576
      7 C           0.2956    1.7822   -3.3213 C.ar    1  LIG1       -0.0576
      8 C          -0.9787    2.1599   -3.7611 C.ar    1  LIG1       -0.0615
      9 C          -1.7357    1.3019   -4.5524 C.ar    1  LIG1       -0.0617
     10 C          -1.2172    0.0633   -4.9097 C.ar    1  LIG1       -0.0615
     11 C           0.0530   -0.3147   -4.4663 C.ar    1  LIG1       -0.0576
     12 N           6.6645    0.6791   -2.1189 N.ar    1  LIG1       -0.2002
     13 C           5.4837    1.2480   -2.4186 C.ar    1  LIG1        0.3190
     14 N           5.3400    2.3933   -3.1020 N.ar    1  LIG1       -0.2002
     15 C           6.4632    3.0231   -3.4841 C.ar    1  LIG1        0.0453
     16 C           7.7203    2.5223   -3.2124 C.ar    1  LIG1       -0.0193
     17 C           7.7722    1.3311   -2.5163 C.ar    1  LIG1        0.0453
     18 C           9.0808    0.6875   -2.1781 C.3     1  LIG1       -0.0221
     19 C           6.3009    4.3051   -4.2404 C.3     1  LIG1       -0.0221
     20 O           4.3910    0.5045   -2.0487 O.3     1  LIG1       -0.4519
     21 C           3.0815    1.0801   -2.3167 C.3     1  LIG1        0.1554
     22 C           2.2599    0.0625   -3.1990 C.3     1  LIG1        0.0601
     23 C           2.4856    1.4650   -0.9317 C.2     1  LIG1        0.0833
     24 O           2.2954    2.7088   -0.7569 O.co2   1  LIG1       -0.5460
     25 O           2.2570    0.5255   -0.1174 O.co2   1  LIG1       -0.5460
     26 C           0.8388    0.5314   -3.6508 C.ar    1  LIG1       -0.0332
     27 C           2.0517   -1.2649   -2.4107 C.3     1  LIG1       -0.0477
     28 H           4.0778    1.5238   -7.3168 H       1  LIG1        0.0618
     29 H           5.2901   -0.6067   -7.7248 H       1  LIG1        0.0618
     30 H           5.1413   -2.4426   -6.0611 H       1  LIG1        0.0618
     31 H           3.8177   -2.1747   -4.0262 H       1  LIG1        0.0621
     32 H           2.7256    1.8113   -5.2881 H       1  LIG1        0.0621
     33 H           0.8408    2.4994   -2.7137 H       1  LIG1        0.0621
     34 H          -1.3723    3.1306   -3.4716 H       1  LIG1        0.0618
     35 H          -2.7240    1.5999   -4.8870 H       1  LIG1        0.0618
     36 H          -1.7946   -0.6130   -5.5322 H       1  LIG1        0.0618
     37 H           0.4397   -1.2835   -4.7748 H       1  LIG1        0.0621
     38 H           8.6153    3.0386   -3.5310 H       1  LIG1        0.0653
     39 H           9.9298    1.2991   -2.4997 H       1  LIG1        0.0293
     40 H           9.1545   -0.2862   -2.6727 H       1  LIG1        0.0293
     41 H           9.1568    0.5427   -1.0959 H       1  LIG1        0.0293
     42 H           5.2425    4.5639   -4.3486 H       1  LIG1        0.0293
     43 H           6.7316    4.2097   -5.2420 H       1  LIG1        0.0293
     44 H           6.7986    5.1235   -3.7111 H       1  LIG1        0.0293
     45 H           3.1558    2.0189   -2.8791 H       1  LIG1        0.0810
     46 H           2.9750   -1.6106   -1.9325 H       1  LIG1        0.0243
     47 H           1.7018   -2.0836   -3.0506 H       1  LIG1        0.0243
     48 H           1.2925   -1.1540   -1.6285 H       1  LIG1        0.0243
@<TRIPOS>BOND
     1     1     2   ar
     2     2     3   ar
     3     3     4   ar
     4     4     5   ar
     5     5     6   ar
     6     5    22    1
     7     6     1   ar
     8     7     8   ar
     9     8     9   ar
    10     9    10   ar
    11    10    11   ar
    12    11    26   ar
    13    12    13   ar
    14    13    14   ar
    15    14    15   ar
    16    15    16   ar
    17    15    19    1
    18    16    17   ar
    19    17    12   ar
    20    17    18    1
    21    20    21    1
    22    20    13    1
    23    21    23    1
    24    21    22    1
    25    22    27    1
    26    22    26    1
    27    23    25   ar
    28    23    24   ar
    29    26     7   ar
    30     1    28    1
    31     2    29    1
    32     3    30    1
    33     4    31    1
    34     6    32    1
    35     7    33    1
    36     8    34    1
    37     9    35    1
    38    10    36    1
    39    11    37    1
    40    16    38    1
    41    18    39    1
    42    18    40    1
    43    18    41    1
    44    19    42    1
    45    19    43    1
    46    19    44    1
    47    21    45    1
    48    27    46    1
    49    27    47    1
    50    27    48    1
@<TRIPOS>MOLECULE
*****
 48 50 0 0 0
SMALL
GASTEIGER

@<TRIPOS>ATOM
      1 C           4.5400   -1.4950   -5.9598 C.ar    1  LIG1       -0.0615
      2 C           4.7172   -0.4187   -6.8239 C.ar    1  LIG1       -0.0617
      3 C           4.1278    0.8057   -6.5269 C.ar    1  LIG1       -0.0615
      4 C           3.3529    0.9468   -5.3729 C.ar    1  LIG1       -0.0576
      5 C           3.1554   -0.1290   -4.4830 C.ar    1  LIG1       -0.0332
      6 C           3.7715   -1.3510   -4.7979 C.ar    1  LIG1       -0.0576
      7 C           0.3022    1.7802   -3.3247 C.ar    1  LIG1       -0.0576
      8 C          -0.9824    2.1325   -3.7556 C.ar    1  LIG1       -0.0615
      9 C          -1.7276    1.2599   -4.5416 C.ar    1  LIG1       -0.0617
     10 C          -1.1855    0.0337   -4.9058 C.ar    1  LIG1       -0.0615
     11 C           0.0941   -0.3195   -4.4688 C.ar    1  LIG1       -0.0576
     12 N           6.5429    0.4451   -2.6748 N.ar    1  LIG1       -0.2002
     13 C           5.4661    1.2068   -2.4193 C.ar    1  LIG1        0.3190
     14 N           5.4168    2.5401   -2.5551 N.ar    1  LIG1       -0.2002
     15 C           6.5275    3.1476   -3.0032 C.ar    1  LIG1        0.0453
     16 C           7.6750    2.4480   -3.3199 C.ar    1  LIG1       -0.0193
     17 C           7.6345    1.0798   -3.1379 C.ar    1  LIG1        0.0453
     18 C           8.8148    0.2183   -3.4620 C.3     1  LIG1       -0.0221
     19 C           6.4775    4.6373   -3.1506 C.3     1  LIG1       -0.0221
     20 O           4.3761    0.5161   -1.9559 O.3     1  LIG1       -0.4519
     21 C           3.0844    1.1065   -2.2794 C.3     1  LIG1        0.1554
     22 C           2.2854    0.0864   -3.1843 C.3     1  LIG1        0.0601
     23 C           2.4420    1.5182   -0.9236 C.2     1  LIG1        0.0833
     24 O           2.2658    2.7671   -0.7684 O.co2   1  LIG1       -0.5460
     25 O           2.1511    0.5911   -0.1144 O.co2   1  LIG1       -0.5460
     26 C           0.8655    0.5384   -3.6516 C.ar    1  LIG1       -0.0332
     27 C           2.0880   -1.2480   -2.4031 C.3     1  LIG1       -0.0477
     28 H           5.0062   -2.4519   -6.1793 H       1  LIG1        0.0618
     29 H           5.3218   -0.5305   -7.7182 H       1  LIG1        0.0618
     30 H           4.2726    1.6575   -7.1836 H       1  LIG1        0.0618
     31 H           2.9066    1.9178   -5.1607 H       1  LIG1        0.0621
     32 H           3.6891   -2.2087   -4.1413 H       1  LIG1        0.0621
     33 H           0.8359    2.5088   -2.7205 H       1  LIG1        0.0621
     34 H          -1.3939    3.0936   -3.4605 H       1  LIG1        0.0618
     35 H          -2.7254    1.5367   -4.8663 H       1  LIG1        0.0618
     36 H          -1.7529   -0.6538   -5.5251 H       1  LIG1        0.0618
     37 H           0.4963   -1.2813   -4.7792 H       1  LIG1        0.0621
     38 H           8.5586    2.9502   -3.6883 H       1  LIG1        0.0653
     39 H           9.6704    0.8112   -3.7995 H       1  LIG1        0.0293
     40 H           8.5521   -0.4865   -4.2578 H       1  LIG1        0.0293
     41 H           9.1200   -0.3460   -2.5751 H       1  LIG1        0.0293
     42 H           5.4963    5.0270   -2.8598 H       1  LIG1        0.0293
     43 H           6.6614    4.9213   -4.1913 H       1  LIG1        0.0293
     44 H           7.2324    5.1060   -2.5114 H       1  LIG1        0.0293
     45 H           3.1995    2.0366   -2.8510 H       1  LIG1        0.0810
     46 H           3.0197   -1.6005   -1.9452 H       1  LIG1        0.0243
     47 H           1.7240   -2.0629   -3.0403 H       1  LIG1        0.0243
     48 H           1.3422   -1.1443   -1.6085 H       1  LIG1        0.0243
@<TRIPOS>BOND
     1     1     2   ar
     2     2     3   ar
     3     3     4   ar
     4     4     5   ar
     5     5     6   ar
     6     5    22    1
     7     6     1   ar
     8     7     8   ar
     9     8     9   ar
    10     9    10   ar
    11    10    11   ar
    12    11    26   ar
    13    12    13   ar
    14    13    14   ar
    15    14    15   ar
    16    15    16   ar
    17    15    19    1
    18    16    17   ar
    19    17    12   ar
    20    17    18    1
    21    20    21    1
    22    20    13    1
    23    21    23    1
    24    21    22    1
    25    22    27    1
    26    22    26    1
    27    23    25   ar
    28    23    24   ar
    29    26     7   ar
    30     1    28    1
    31     2    29    1
    32     3    30    1
    33     4    31    1
    34     6    32    1
    35     7    33    1
    36     8    34    1
    37     9    35    1
    38    10    36    1
    39    11    37    1
    40    16    38    1
    41    18    39    1
    42    18    40    1
    43    18    41    1
    44    19    42    1
    45    19    43    1
    46    19    44    1
    47    21    45    1
    48    27    46    1
    49    27    47    1
    50    27    48    1
@<TRIPOS>MOLECULE
*****
 48 50 0 0 0
SMALL
GASTEIGER

@<TRIPOS>ATOM
      1 C           4.7876   -1.3876   -5.7955 C.ar    1  LIG1       -0.0615
      2 C           4.6912   -0.4672   -6.8346 C.ar    1  LIG1       -0.0617
      3 C           3.8266    0.6160   -6.7168 C.ar    1  LIG1       -0.0615
      4 C           3.0551    0.7738   -5.5626 C.ar    1  LIG1       -0.0576
      5 C           3.1137   -0.1590   -4.5064 C.ar    1  LIG1       -0.0332
      6 C           4.0095   -1.2346   -4.6437 C.ar    1  LIG1       -0.0576
      7 C           0.2738    1.7552   -3.3691 C.ar    1  LIG1       -0.0576
      8 C          -1.0158    2.0962   -3.7938 C.ar    1  LIG1       -0.0615
      9 C          -1.7871    1.1853   -4.5077 C.ar    1  LIG1       -0.0617
     10 C          -1.2670   -0.0691   -4.8027 C.ar    1  LIG1       -0.0615
     11 C           0.0188   -0.4103   -4.3734 C.ar    1  LIG1       -0.0576
     12 N           5.3217    2.6550   -2.6181 N.ar    1  LIG1       -0.2002
     13 C           5.4458    1.3266   -2.4914 C.ar    1  LIG1        0.3190
     14 N           6.5696    0.6300   -2.7326 N.ar    1  LIG1       -0.2002
     15 C           7.6329    1.3329   -3.1606 C.ar    1  LIG1        0.0453
     16 C           7.5988    2.7042   -3.3261 C.ar    1  LIG1       -0.0193
     17 C           6.4039    3.3321   -3.0378 C.ar    1  LIG1        0.0453
     18 C           6.2541    4.8167   -3.1561 C.3     1  LIG1       -0.0221
     19 C           8.8797    0.5635   -3.4693 C.3     1  LIG1       -0.0221
     20 O           4.3871    0.5672   -2.0616 O.3     1  LIG1       -0.4519
     21 C           3.0678    1.1174   -2.3421 C.3     1  LIG1        0.1554
     22 C           2.2614    0.0671   -3.2007 C.3     1  LIG1        0.0601
     23 C           2.4482    1.4981   -0.9665 C.2     1  LIG1        0.0833
     24 O           2.3028    0.5668   -0.1232 O.co2   1  LIG1       -0.5460
     25 O           2.1501    2.7251   -0.8286 O.co2   1  LIG1       -0.5460
     26 C           0.8186    0.4892   -3.6326 C.ar    1  LIG1       -0.0332
     27 C           2.1089   -1.2620   -2.3998 C.3     1  LIG1       -0.0477
     28 H           5.4841   -2.2180   -5.8635 H       1  LIG1        0.0618
     29 H           5.3020   -0.5836   -7.7239 H       1  LIG1        0.0618
     30 H           3.7569    1.3506   -7.5132 H       1  LIG1        0.0618
     31 H           2.4080    1.6454   -5.4860 H       1  LIG1        0.0621
     32 H           4.1497   -1.9478   -3.8358 H       1  LIG1        0.0621
     33 H           0.8312    2.5147   -2.8275 H       1  LIG1        0.0621
     34 H          -1.4089    3.0804   -3.5537 H       1  LIG1        0.0618
     35 H          -2.7872    1.4548   -4.8311 H       1  LIG1        0.0618
     36 H          -1.8556   -0.7864   -5.3662 H       1  LIG1        0.0618
     37 H           0.4057   -1.3921   -4.6366 H       1  LIG1        0.0621
     38 H           8.4651    3.2557   -3.6649 H       1  LIG1        0.0653
     39 H           7.1243    5.2741   -3.6376 H       1  LIG1        0.0293
     40 H           6.1374    5.2586   -2.1619 H       1  LIG1        0.0293
     41 H           5.3714    5.0569   -3.7571 H       1  LIG1        0.0293
     42 H           8.7423   -0.5029   -3.2625 H       1  LIG1        0.0293
     43 H           9.7112    0.9247   -2.8564 H       1  LIG1        0.0293
     44 H           9.1382    0.6734   -4.5272 H       1  LIG1        0.0293
     45 H           3.1368    2.0397   -2.9348 H       1  LIG1        0.0810
     46 H           3.0369   -1.5545   -1.8961 H       1  LIG1        0.0243
     47 H           1.8226   -2.1051   -3.0398 H       1  LIG1        0.0243
     48 H           1.3309   -1.1815   -1.6320 H       1  LIG1        0.0243
@<TRIPOS>BOND
     1     1     2   ar
     2     2     3   ar
     3     3     4   ar
     4     4     5   ar
     5     5     6   ar
     6     5    22    1
     7     6     1   ar
     8     7     8   ar
     9     8     9   ar
    10     9    10   ar
    11    10    11   ar
    12    11    26   ar
    13    12    13   ar
    14    13    14   ar
    15    14    15   ar
    16    15    16   ar
    17    15    19    1
    18    16    17   ar
    19    17    12   ar
    20    17    18    1
    21    20    21    1
    22    20    13    1
    23    21    23    1
    24    21    22    1
    25    22    27    1
    26    22    26    1
    27    23    25   ar
    28    23    24   ar
    29    26     7   ar
    30     1    28    1
    31     2    29    1
    32     3    30    1
    33     4    31    1
    34     6    32    1
    35     7    33    1
    36     8    34    1
    37     9    35    1
    38    10    36    1
    39    11    37    1
    40    16    38    1
    41    18    39    1
    42    18    40    1
    43    18    41    1
    44    19    42    1
    45    19    43    1
    46    19    44    1
    47    21    45    1
    48    27    46    1
    49    27    47    1
    50    27    48    1
@<TRIPOS>MOLECULE
*****
 48 50 0 0 0
SMALL
GASTEIGER

@<TRIPOS>ATOM
      1 C           3.8823    0.6191   -6.6886 C.ar    1  LIG1       -0.0615
      2 C           4.7314   -0.4760   -6.8075 C.ar    1  LIG1       -0.0617
      3 C           4.8063   -1.4049   -5.7741 C.ar    1  LIG1       -0.0615
      4 C           4.0220   -1.2481   -4.6268 C.ar    1  LIG1       -0.0576
      5 C           3.1415   -0.1603   -4.4886 C.ar    1  LIG1       -0.0332
      6 C           3.1047    0.7803   -5.5389 C.ar    1  LIG1       -0.0576
      7 C           0.3135    1.7794   -3.3799 C.ar    1  LIG1       -0.0576
      8 C          -0.9704    2.1317   -3.8126 C.ar    1  LIG1       -0.0615
      9 C          -1.7479    1.2259   -4.5262 C.ar    1  LIG1       -0.0617
     10 C          -1.2392   -0.0347   -4.8142 C.ar    1  LIG1       -0.0615
     11 C           0.0408   -0.3872   -4.3771 C.ar    1  LIG1       -0.0576
     12 N           6.5705    0.4848   -2.6686 N.ar    1  LIG1       -0.2002
     13 C           5.4765    1.2324   -2.4400 C.ar    1  LIG1        0.3190
     14 N           5.4096    2.5630   -2.5841 N.ar    1  LIG1       -0.2002
     15 C           6.5209    3.1841   -3.0126 C.ar    1  LIG1        0.0453
     16 C           7.6855    2.5002   -3.3019 C.ar    1  LIG1       -0.0193
     17 C           7.6635    1.1329   -3.1091 C.ar    1  LIG1        0.0453
     18 C           8.8617    0.2877   -3.4099 C.3     1  LIG1       -0.0221
     19 C           6.4518    4.6716   -3.1715 C.3     1  LIG1       -0.0221
     20 O           4.3880    0.5255   -1.9982 O.3     1  LIG1       -0.4519
     21 C           3.0908    1.1061   -2.3179 C.3     1  LIG1        0.1554
     22 C           2.2802    0.0690   -3.1895 C.3     1  LIG1        0.0601
     23 C           2.4471    1.5112   -0.9607 C.2     1  LIG1        0.0833
     24 O           2.2389    0.5866   -0.1230 O.co2   1  LIG1       -0.5460
     25 O           2.1942    2.7490   -0.8303 O.co2   1  LIG1       -0.5460
     26 C           0.8457    0.5062   -3.6342 C.ar    1  LIG1       -0.0332
     27 C           2.1069   -1.2622   -2.3950 C.3     1  LIG1       -0.0477
     28 H           3.8289    1.3598   -7.4806 H       1  LIG1        0.0618
     29 H           5.3466   -0.5958   -7.6935 H       1  LIG1        0.0618
     30 H           5.4903   -2.2456   -5.8432 H       1  LIG1        0.0618
     31 H           4.1450   -1.9695   -3.8232 H       1  LIG1        0.0621
     32 H           2.4694    1.6604   -5.4616 H       1  LIG1        0.0621
     33 H           0.8767    2.5353   -2.8393 H       1  LIG1        0.0621
     34 H          -1.3548    3.1208   -3.5783 H       1  LIG1        0.0618
     35 H          -2.7440    1.5040   -4.8550 H       1  LIG1        0.0618
     36 H          -1.8323   -0.7483   -5.3777 H       1  LIG1        0.0618
     37 H           0.4185   -1.3740   -4.6349 H       1  LIG1        0.0621
     38 H           8.5684    3.0139   -3.6565 H       1  LIG1        0.0653
     39 H           9.7393    0.8970   -3.6473 H       1  LIG1        0.0293
     40 H           8.6514   -0.3614   -4.2658 H       1  LIG1        0.0293
     41 H           9.1068   -0.3356   -2.5442 H       1  LIG1        0.0293
     42 H           5.4646    5.0502   -2.8874 H       1  LIG1        0.0293
     43 H           6.6362    4.9494   -4.2139 H       1  LIG1        0.0293
     44 H           7.1981    5.1551   -2.5332 H       1  LIG1        0.0293
     45 H           3.1970    2.0241   -2.9119 H       1  LIG1        0.0810
     46 H           3.0266   -1.5668   -1.8836 H       1  LIG1        0.0243
     47 H           1.8186   -2.1002   -3.0408 H       1  LIG1        0.0243
     48 H           1.3223   -1.1773   -1.6344 H       1  LIG1        0.0243
@<TRIPOS>BOND
     1     1     2   ar
     2     2     3   ar
     3     3     4   ar
     4     4     5   ar
     5     5     6   ar
     6     5    22    1
     7     6     1   ar
     8     7     8   ar
     9     8     9   ar
    10     9    10   ar
    11    10    11   ar
    12    11    26   ar
    13    12    13   ar
    14    13    14   ar
    15    14    15   ar
    16    15    16   ar
    17    15    19    1
    18    16    17   ar
    19    17    12   ar
    20    17    18    1
    21    20    21    1
    22    20    13    1
    23    21    23    1
    24    21    22    1
    25    22    27    1
    26    22    26    1
    27    23    25   ar
    28    23    24   ar
    29    26     7   ar
    30     1    28    1
    31     2    29    1
    32     3    30    1
    33     4    31    1
    34     6    32    1
    35     7    33    1
    36     8    34    1
    37     9    35    1
    38    10    36    1
    39    11    37    1
    40    16    38    1
    41    18    39    1
    42    18    40    1
    43    18    41    1
    44    19    42    1
    45    19    43    1
    46    19    44    1
    47    21    45    1
    48    27    46    1
    49    27    47    1
    50    27    48    1
