@<TRIPOS>MOLECULE
6433095
 64 68 0 0 0
SMALL
GASTEIGER

@<TRIPOS>ATOM
      1 S           3.6295    0.2406    1.0038 S.O2    1  LIG1        0.0908
      2 O           1.3949    2.6452   -0.0061 O.3     1  LIG1       -0.4435
      3 O          -1.4208    2.6589   -0.3624 O.3     1  LIG1       -0.4715
      4 O           4.1397    1.5986    0.9600 O.2     1  LIG1       -0.1484
      5 O           4.5684   -0.8639    0.9758 O.2     1  LIG1       -0.1484
      6 O           2.1670    5.1238   -0.5418 O.3     1  LIG1       -0.4914
      7 O          -1.8938    2.9092   -3.2364 O.3     1  LIG1       -0.3917
      8 N           2.6445    0.1282   -0.3713 N.pl3   1  LIG1       -0.1950
      9 N           0.5773   -0.8867   -0.2473 N.ar    1  LIG1       -0.2073
     10 N          -1.4564    0.3346   -0.1672 N.ar    1  LIG1       -0.1899
     11 N           1.8255   -0.9776    2.5451 N.ar    1  LIG1       -0.2351
     12 N          -3.0578   -4.4203   -0.0212 N.ar    1  LIG1       -0.2552
     13 N          -2.0156   -6.8302   -1.1889 N.ar    1  LIG1       -0.5621
     14 N          -0.2893   -5.6868   -2.0979 N.ar    1  LIG1       -0.1535
     15 N          -1.2257   -7.5681   -1.9762 N.ar    1  LIG1       -0.3597
     16 N          -0.1924   -6.9329   -2.5381 N.ar    1  LIG1       -0.0878
     17 C           1.2381    0.2816   -0.1960 C.ar    1  LIG1        0.1882
     18 C           0.6330    1.5165   -0.0837 C.ar    1  LIG1        0.2307
     19 C          -0.7414    1.4737   -0.1919 C.ar    1  LIG1        0.2641
     20 C          -0.7569   -0.8119   -0.1673 C.ar    1  LIG1        0.1659
     21 C           2.6411    0.1047    2.4865 C.ar    1  LIG1        0.1969
     22 C          -1.5308   -2.0582   -0.1107 C.ar    1  LIG1        0.0227
     23 C           2.7667    1.0517    3.4920 C.ar    1  LIG1       -0.0160
     24 C           1.0493    3.6241    0.9104 C.ar    1  LIG1        0.1702
     25 C          -1.0571   -3.2478   -0.6827 C.ar    1  LIG1       -0.0252
     26 C           1.1701   -0.2419    4.7559 C.ar    1  LIG1       -0.0322
     27 C           2.0103    0.8698    4.6459 C.ar    1  LIG1       -0.0541
     28 C          -2.7878   -2.0933    0.5103 C.ar    1  LIG1       -0.0328
     29 C          -2.7123    2.5406   -0.9742 C.3     1  LIG1        0.1143
     30 C          -1.8438   -4.3969   -0.6325 C.ar    1  LIG1        0.0708
     31 C           1.1169   -1.1272    3.6823 C.ar    1  LIG1        0.0327
     32 C           1.4615    4.9334    0.6197 C.ar    1  LIG1        0.1621
     33 C           0.3716    3.3643    2.1111 C.ar    1  LIG1       -0.0157
     34 C          -3.4985   -3.2782    0.5357 C.ar    1  LIG1        0.0289
     35 C           0.3613   -0.4962    5.9885 C.3     1  LIG1       -0.0383
     36 C          -2.6672    2.0327   -2.4212 C.3     1  LIG1        0.0783
     37 C           1.1042    5.9801    1.4773 C.ar    1  LIG1       -0.0163
     38 C           0.0351    4.4113    2.9708 C.ar    1  LIG1       -0.0581
     39 C           0.3883    5.7185    2.6472 C.ar    1  LIG1       -0.0581
     40 C          -1.4004   -5.6336   -1.2802 C.ar    1  LIG1        0.0207
     41 C           3.1774    6.1249   -0.4642 C.3     1  LIG1        0.0790
     42 H          -1.7823    2.4731   -4.0988 H       1  LIG1        0.2095
     43 H           2.9710    0.8972   -0.9617 H       1  LIG1        0.1754
     44 H          -1.3994   -8.5550   -2.1419 H       1  LIG1        0.1651
     45 H           3.4380    1.8986    3.3943 H       1  LIG1        0.0653
     46 H          -0.0877   -3.2658   -1.1767 H       1  LIG1        0.0646
     47 H           2.0923    1.5884    5.4580 H       1  LIG1        0.0622
     48 H          -3.2088   -1.2064    0.9753 H       1  LIG1        0.0640
     49 H          -3.1271    3.5550   -0.9784 H       1  LIG1        0.0720
     50 H          -3.3776    1.9287   -0.3536 H       1  LIG1        0.0720
     51 H           0.4881   -2.0143    3.7124 H       1  LIG1        0.0833
     52 H           0.0796    2.3574    2.3923 H       1  LIG1        0.0655
     53 H          -4.4719   -3.3400    1.0146 H       1  LIG1        0.0830
     54 H           0.5182    0.2858    6.7387 H       1  LIG1        0.0278
     55 H           0.6480   -1.4530    6.4369 H       1  LIG1        0.0278
     56 H          -0.7050   -0.5181    5.7430 H       1  LIG1        0.0278
     57 H          -2.2282    1.0343   -2.4954 H       1  LIG1        0.0591
     58 H          -3.6809    1.9942   -2.8321 H       1  LIG1        0.0591
     59 H           1.3547    7.0093    1.2423 H       1  LIG1        0.0655
     60 H          -0.5165    4.2076    3.8851 H       1  LIG1        0.0619
     61 H           0.1045    6.5373    3.3039 H       1  LIG1        0.0619
     62 H           3.8721    5.9643   -1.2939 H       1  LIG1        0.0660
     63 H           3.7501    6.0564    0.4679 H       1  LIG1        0.0660
     64 H           2.7416    7.1221   -0.5811 H       1  LIG1        0.0660
@<TRIPOS>BOND
     1     1     4    2
     2     1     5    2
     3     1     8    1
     4     1    21    1
     5     2    18    1
     6     2    24    1
     7     3    19    1
     8     3    29    1
     9     6    32    1
    10     6    41    1
    11     7    36    1
    12     8    17    1
    13     9    17   ar
    14     9    20   ar
    15    10    19   ar
    16    10    20   ar
    17    11    21   ar
    18    11    31   ar
    19    12    30   ar
    20    12    34   ar
    21    13    15   ar
    22    13    40   ar
    23    14    16   ar
    24    14    40   ar
    25    15    16   ar
    26    17    18   ar
    27    18    19   ar
    28    20    22    1
    29    21    23   ar
    30    22    25   ar
    31    22    28   ar
    32    23    27   ar
    33    24    32   ar
    34    24    33   ar
    35    25    30   ar
    36    26    27   ar
    37    26    31   ar
    38    26    35    1
    39    28    34   ar
    40    29    36    1
    41    30    40    1
    42    32    37   ar
    43    33    38   ar
    44    37    39   ar
    45    38    39   ar
    46     7    42    1
    47     8    43    1
    48    15    44    1
    49    23    45    1
    50    25    46    1
    51    27    47    1
    52    28    48    1
    53    29    49    1
    54    29    50    1
    55    31    51    1
    56    33    52    1
    57    34    53    1
    58    35    54    1
    59    35    55    1
    60    35    56    1
    61    36    57    1
    62    36    58    1
    63    37    59    1
    64    38    60    1
    65    39    61    1
    66    41    62    1
    67    41    63    1
    68    41    64    1
@<TRIPOS>MOLECULE
6433095
 64 68 0 0 0
SMALL
GASTEIGER

@<TRIPOS>ATOM
      1 S           3.3036    0.4941   -1.7246 S.O2    1  LIG1        0.0908
      2 O           1.3362    2.8317    0.0836 O.3     1  LIG1       -0.4435
      3 O          -1.4153    2.8120   -0.5545 O.3     1  LIG1       -0.4715
      4 O           2.2810    0.9885   -2.6279 O.2     1  LIG1       -0.1484
      5 O           4.0033   -0.7428   -2.0017 O.2     1  LIG1       -0.1484
      6 O           0.0414    2.1493    2.5699 O.3     1  LIG1       -0.4914
      7 O          -3.6525    4.5507    0.2940 O.3     1  LIG1       -0.3917
      8 N           2.6630    0.3400   -0.1505 N.pl3   1  LIG1       -0.1950
      9 N           0.6278   -0.7240   -0.2168 N.ar    1  LIG1       -0.2073
     10 N          -1.4155    0.4663   -0.4985 N.ar    1  LIG1       -0.1899
     11 N           5.7752    1.4119   -1.2732 N.ar    1  LIG1       -0.2351
     12 N          -2.9192   -4.3502   -0.2606 N.ar    1  LIG1       -0.2552
     13 N           0.4205   -5.8732   -0.3261 N.ar    1  LIG1       -0.5621
     14 N          -1.6155   -6.8536   -0.2206 N.ar    1  LIG1       -0.1535
     15 N           0.4582   -7.2132   -0.2888 N.ar    1  LIG1       -0.3597
     16 N          -0.7227   -7.8337   -0.2240 N.ar    1  LIG1       -0.0878
     17 C           1.2461    0.4632   -0.1169 C.ar    1  LIG1        0.1882
     18 C           0.6160    1.6900   -0.1229 C.ar    1  LIG1        0.2307
     19 C          -0.7336    1.6236   -0.3902 C.ar    1  LIG1        0.2641
     20 C          -0.7061   -0.6703   -0.3709 C.ar    1  LIG1        0.1659
     21 C           4.5034    1.8187   -1.5211 C.ar    1  LIG1        0.1969
     22 C          -1.4590   -1.9367   -0.3573 C.ar    1  LIG1        0.0227
     23 C           4.1238    3.1371   -1.7335 C.ar    1  LIG1       -0.0160
     24 C           0.8532    3.7579    0.9909 C.ar    1  LIG1        0.1702
     25 C          -0.8119   -3.1834   -0.3520 C.ar    1  LIG1       -0.0252
     26 C           6.4383    3.7406   -1.4182 C.ar    1  LIG1       -0.0322
     27 C           5.1148    4.1128   -1.6712 C.ar    1  LIG1       -0.0541
     28 C          -2.8614   -1.9470   -0.3194 C.ar    1  LIG1       -0.0328
     29 C          -2.7829    2.6627   -0.9460 C.3     1  LIG1        0.1143
     30 C          -1.5631   -4.3571   -0.3023 C.ar    1  LIG1        0.0708
     31 C           6.7116    2.3854   -1.2396 C.ar    1  LIG1        0.0327
     32 C           0.1897    3.4611    2.1955 C.ar    1  LIG1        0.1621
     33 C           1.0945    5.0923    0.6428 C.ar    1  LIG1       -0.0157
     34 C          -3.5348   -3.1540   -0.2720 C.ar    1  LIG1        0.0289
     35 C           7.5405    4.7532   -1.4187 C.3     1  LIG1       -0.0383
     36 C          -3.4026    4.0557   -1.0215 C.3     1  LIG1        0.0783
     37 C          -0.2389    4.5092    3.0198 C.ar    1  LIG1       -0.0163
     38 C           0.6525    6.1291    1.4644 C.ar    1  LIG1       -0.0581
     39 C          -0.0189    5.8371    2.6489 C.ar    1  LIG1       -0.0581
     40 C          -0.9129   -5.6692   -0.2857 C.ar    1  LIG1        0.0207
     41 C          -1.2430    1.8406    3.1126 C.3     1  LIG1        0.0790
     42 H          -3.8456    5.4997    0.2079 H       1  LIG1        0.2095
     43 H           2.9394   -0.5807    0.1894 H       1  LIG1        0.1754
     44 H           1.3317   -7.7322   -0.3142 H       1  LIG1        0.1651
     45 H           3.0963    3.3999   -1.9576 H       1  LIG1        0.0653
     46 H           0.2742   -3.2389   -0.3828 H       1  LIG1        0.0646
     47 H           4.8531    5.1555   -1.8377 H       1  LIG1        0.0622
     48 H          -3.4305   -1.0214   -0.3165 H       1  LIG1        0.0640
     49 H          -3.3278    2.0601   -0.2095 H       1  LIG1        0.0720
     50 H          -2.8254    2.1958   -1.9370 H       1  LIG1        0.0720
     51 H           7.7268    2.0347   -1.0717 H       1  LIG1        0.0833
     52 H           1.6192    5.3244   -0.2797 H       1  LIG1        0.0655
     53 H          -4.6199   -3.1890   -0.2359 H       1  LIG1        0.0830
     54 H           7.1618    5.7472   -1.1574 H       1  LIG1        0.0278
     55 H           8.0010    4.8046   -2.4103 H       1  LIG1        0.0278
     56 H           8.3078    4.4927   -0.6827 H       1  LIG1        0.0278
     57 H          -2.7281    4.7549   -1.5268 H       1  LIG1        0.0591
     58 H          -4.3589    4.0207   -1.5510 H       1  LIG1        0.0591
     59 H          -0.7314    4.3107    3.9668 H       1  LIG1        0.0655
     60 H           0.8345    7.1627    1.1831 H       1  LIG1        0.0619
     61 H          -0.3610    6.6425    3.2942 H       1  LIG1        0.0619
     62 H          -1.3915    0.7599    3.0226 H       1  LIG1        0.0660
     63 H          -2.0525    2.3351    2.5631 H       1  LIG1        0.0660
     64 H          -1.2824    2.0956    4.1760 H       1  LIG1        0.0660
@<TRIPOS>BOND
     1     1     4    2
     2     1     5    2
     3     1     8    1
     4     1    21    1
     5     2    18    1
     6     2    24    1
     7     3    19    1
     8     3    29    1
     9     6    32    1
    10     6    41    1
    11     7    36    1
    12     8    17    1
    13     9    17   ar
    14     9    20   ar
    15    10    19   ar
    16    10    20   ar
    17    11    21   ar
    18    11    31   ar
    19    12    30   ar
    20    12    34   ar
    21    13    15   ar
    22    13    40   ar
    23    14    16   ar
    24    14    40   ar
    25    15    16   ar
    26    17    18   ar
    27    18    19   ar
    28    20    22    1
    29    21    23   ar
    30    22    25   ar
    31    22    28   ar
    32    23    27   ar
    33    24    32   ar
    34    24    33   ar
    35    25    30   ar
    36    26    27   ar
    37    26    31   ar
    38    26    35    1
    39    28    34   ar
    40    29    36    1
    41    30    40    1
    42    32    37   ar
    43    33    38   ar
    44    37    39   ar
    45    38    39   ar
    46     7    42    1
    47     8    43    1
    48    15    44    1
    49    23    45    1
    50    25    46    1
    51    27    47    1
    52    28    48    1
    53    29    49    1
    54    29    50    1
    55    31    51    1
    56    33    52    1
    57    34    53    1
    58    35    54    1
    59    35    55    1
    60    35    56    1
    61    36    57    1
    62    36    58    1
    63    37    59    1
    64    38    60    1
    65    39    61    1
    66    41    62    1
    67    41    63    1
    68    41    64    1
@<TRIPOS>MOLECULE
6433095
 64 68 0 0 0
SMALL
GASTEIGER

@<TRIPOS>ATOM
      1 S           3.2777    0.3328   -1.7219 S.O2    1  LIG1        0.0908
      2 O           1.4259    2.7032    0.0890 O.3     1  LIG1       -0.4435
      3 O          -1.3302    2.7140   -0.6172 O.3     1  LIG1       -0.4715
      4 O           2.4389    1.2512   -2.4699 O.2     1  LIG1       -0.1484
      5 O           3.5533   -0.9997   -2.2215 O.2     1  LIG1       -0.1484
      6 O           2.3145    5.1390   -0.3827 O.3     1  LIG1       -0.4914
      7 O          -2.0206    2.7675   -3.4485 O.3     1  LIG1       -0.3917
      8 N           2.6863    0.2237   -0.1214 N.pl3   1  LIG1       -0.1950
      9 N           0.6259   -0.8308   -0.1539 N.ar    1  LIG1       -0.2073
     10 N          -1.4031    0.3954   -0.3170 N.ar    1  LIG1       -0.1899
     11 N           5.5512    0.7067   -0.3997 N.ar    1  LIG1       -0.2351
     12 N          -3.0223   -4.3468   -0.0452 N.ar    1  LIG1       -0.2552
     13 N          -2.0002   -6.7714   -1.1905 N.ar    1  LIG1       -0.5621
     14 N          -0.3192   -5.6354   -2.1889 N.ar    1  LIG1       -0.1535
     15 N          -1.2421   -7.5174   -2.0004 N.ar    1  LIG1       -0.3597
     16 N          -0.2349   -6.8880   -2.6128 N.ar    1  LIG1       -0.0878
     17 C           1.2728    0.3419   -0.0592 C.ar    1  LIG1        0.1882
     18 C           0.6619    1.5797   -0.0469 C.ar    1  LIG1        0.2307
     19 C          -0.6904    1.5355   -0.3005 C.ar    1  LIG1        0.2641
     20 C          -0.7091   -0.7520   -0.2211 C.ar    1  LIG1        0.1659
     21 C           4.8515    1.1605   -1.4748 C.ar    1  LIG1        0.1969
     22 C          -1.4887   -1.9928   -0.1670 C.ar    1  LIG1        0.0227
     23 C           5.2341    2.2179   -2.2836 C.ar    1  LIG1       -0.0160
     24 C           1.0118    3.6960    0.9593 C.ar    1  LIG1        0.1702
     25 C          -1.0292   -3.1834   -0.7487 C.ar    1  LIG1       -0.0252
     26 C           7.2509    2.3417   -0.9602 C.ar    1  LIG1       -0.0322
     27 C           6.4632    2.8151   -2.0153 C.ar    1  LIG1       -0.0541
     28 C          -2.7356   -2.0203    0.4745 C.ar    1  LIG1       -0.0328
     29 C          -2.6723    2.5818   -1.1029 C.3     1  LIG1        0.1143
     30 C          -1.8202   -4.3291   -0.6808 C.ar    1  LIG1        0.0708
     31 C           6.7520    1.2891   -0.1953 C.ar    1  LIG1        0.0327
     32 C           1.4780    4.9951    0.6958 C.ar    1  LIG1        0.1621
     33 C           0.2223    3.4576    2.0933 C.ar    1  LIG1       -0.0157
     34 C          -3.4498   -3.2021    0.5161 C.ar    1  LIG1        0.0289
     35 C           8.6124    2.9003   -0.6864 C.3     1  LIG1       -0.0383
     36 C          -2.7554    1.9835   -2.5121 C.3     1  LIG1        0.0783
     37 C           1.0582    6.0552    1.5068 C.ar    1  LIG1       -0.0163
     38 C          -0.1779    4.5198    2.9052 C.ar    1  LIG1       -0.0581
     39 C           0.2260    5.8176    2.6031 C.ar    1  LIG1       -0.0581
     40 C          -1.3965   -5.5731   -1.3282 C.ar    1  LIG1        0.0207
     41 C           3.1910    6.2594   -0.3434 C.3     1  LIG1        0.0790
     42 H          -1.0763    2.6434   -3.2369 H       1  LIG1        0.2095
     43 H           3.1966    0.8809    0.4688 H       1  LIG1        0.1754
     44 H          -1.4194   -8.5075   -2.1445 H       1  LIG1        0.1651
     45 H           4.6075    2.5663   -3.0980 H       1  LIG1        0.0653
     46 H          -0.0693   -3.2048   -1.2611 H       1  LIG1        0.0646
     47 H           6.8073    3.6389   -2.6374 H       1  LIG1        0.0622
     48 H          -3.1426   -1.1309    0.9472 H       1  LIG1        0.0640
     49 H          -3.0686    3.6028   -1.1410 H       1  LIG1        0.0720
     50 H          -3.2941    2.0284   -0.3888 H       1  LIG1        0.0720
     51 H           7.3296    0.8675    0.6245 H       1  LIG1        0.0833
     52 H          -0.1019    2.4565    2.3605 H       1  LIG1        0.0655
     53 H          -4.4134   -3.2597    1.0142 H       1  LIG1        0.0830
     54 H           8.7557    3.8642   -1.1856 H       1  LIG1        0.0278
     55 H           9.3805    2.2082   -1.0465 H       1  LIG1        0.0278
     56 H           8.7525    3.0620    0.3874 H       1  LIG1        0.0278
     57 H          -2.3729    0.9610   -2.5640 H       1  LIG1        0.0591
     58 H          -3.7991    1.9653   -2.8410 H       1  LIG1        0.0591
     59 H           1.3507    7.0792    1.2989 H       1  LIG1        0.0655
     60 H          -0.8130    4.3356    3.7684 H       1  LIG1        0.0619
     61 H          -0.1036    6.6473    3.2240 H       1  LIG1        0.0619
     62 H           3.9572    6.1109   -1.1102 H       1  LIG1        0.0660
     63 H           3.7014    6.3398    0.6232 H       1  LIG1        0.0660
     64 H           2.6530    7.1820   -0.5820 H       1  LIG1        0.0660
@<TRIPOS>BOND
     1     1     4    2
     2     1     5    2
     3     1     8    1
     4     1    21    1
     5     2    18    1
     6     2    24    1
     7     3    19    1
     8     3    29    1
     9     6    32    1
    10     6    41    1
    11     7    36    1
    12     8    17    1
    13     9    17   ar
    14     9    20   ar
    15    10    19   ar
    16    10    20   ar
    17    11    21   ar
    18    11    31   ar
    19    12    30   ar
    20    12    34   ar
    21    13    15   ar
    22    13    40   ar
    23    14    16   ar
    24    14    40   ar
    25    15    16   ar
    26    17    18   ar
    27    18    19   ar
    28    20    22    1
    29    21    23   ar
    30    22    25   ar
    31    22    28   ar
    32    23    27   ar
    33    24    32   ar
    34    24    33   ar
    35    25    30   ar
    36    26    27   ar
    37    26    31   ar
    38    26    35    1
    39    28    34   ar
    40    29    36    1
    41    30    40    1
    42    32    37   ar
    43    33    38   ar
    44    37    39   ar
    45    38    39   ar
    46     7    42    1
    47     8    43    1
    48    15    44    1
    49    23    45    1
    50    25    46    1
    51    27    47    1
    52    28    48    1
    53    29    49    1
    54    29    50    1
    55    31    51    1
    56    33    52    1
    57    34    53    1
    58    35    54    1
    59    35    55    1
    60    35    56    1
    61    36    57    1
    62    36    58    1
    63    37    59    1
    64    38    60    1
    65    39    61    1
    66    41    62    1
    67    41    63    1
    68    41    64    1
@<TRIPOS>MOLECULE
6433095
 64 68 0 0 0
SMALL
GASTEIGER

@<TRIPOS>ATOM
      1 S           3.5816    0.3941   -1.9052 S.O2    1  LIG1        0.0908
      2 O           1.5089    2.6459   -0.1317 O.3     1  LIG1       -0.4435
      3 O          -1.1607    2.6994   -0.1819 O.3     1  LIG1       -0.4715
      4 O           4.3865   -0.7334   -2.3243 O.2     1  LIG1       -0.1484
      5 O           4.2387    1.6527   -1.6079 O.2     1  LIG1       -0.1484
      6 O           3.2921    4.7467   -0.3908 O.3     1  LIG1       -0.4914
      7 O          -3.5862    3.1298   -2.9083 O.3     1  LIG1       -0.3917
      8 N           2.8103   -0.0325   -0.4533 N.pl3   1  LIG1       -0.1950
      9 N           0.7023   -0.9219   -0.4260 N.ar    1  LIG1       -0.2073
     10 N          -1.2930    0.3633   -0.3531 N.ar    1  LIG1       -0.1899
     11 N           1.8340   -0.3678   -3.7626 N.ar    1  LIG1       -0.2351
     12 N          -2.9606   -4.3870    0.0387 N.ar    1  LIG1       -0.2552
     13 N          -5.8024   -4.2894   -0.4315 N.ar    1  LIG1       -0.5621
     14 N          -5.5956   -2.2678   -1.4233 N.ar    1  LIG1       -0.1535
     15 N          -6.9392   -3.8197   -0.9558 N.ar    1  LIG1       -0.3597
     16 N          -6.8648   -2.6260   -1.5540 N.ar    1  LIG1       -0.0878
     17 C           1.4111    0.2142   -0.3655 C.ar    1  LIG1        0.1882
     18 C           0.8424    1.4617   -0.2098 C.ar    1  LIG1        0.2307
     19 C          -0.5355    1.4703   -0.2705 C.ar    1  LIG1        0.2641
     20 C          -0.6350   -0.8071   -0.3918 C.ar    1  LIG1        0.1659
     21 C           2.3407    0.7328   -3.1524 C.ar    1  LIG1        0.1969
     22 C          -1.4291   -2.0415   -0.2848 C.ar    1  LIG1        0.0227
     23 C           2.0528    2.0402   -3.5193 C.ar    1  LIG1       -0.0160
     24 C           2.4006    2.8703    0.8936 C.ar    1  LIG1        0.1702
     25 C          -2.7999   -2.0660   -0.5903 C.ar    1  LIG1       -0.0252
     26 C           0.6668    1.1251   -5.2709 C.ar    1  LIG1       -0.0322
     27 C           1.1899    2.2319   -4.5943 C.ar    1  LIG1       -0.0541
     28 C          -0.8526   -3.2348    0.1723 C.ar    1  LIG1       -0.0328
     29 C          -2.4465    2.7587   -0.8048 C.3     1  LIG1        0.1143
     30 C          -3.5282   -3.2428   -0.4218 C.ar    1  LIG1        0.0708
     31 C           1.0255   -0.1428   -4.8192 C.ar    1  LIG1        0.0327
     32 C           3.3178    3.9139    0.6995 C.ar    1  LIG1        0.1621
     33 C           2.4565    2.1239    2.0773 C.ar    1  LIG1       -0.0157
     34 C          -1.6446   -4.3592    0.3210 C.ar    1  LIG1        0.0289
     35 C          -0.1667    1.2958   -6.5026 C.3     1  LIG1       -0.0383
     36 C          -2.3146    2.8925   -2.3208 C.3     1  LIG1        0.0783
     37 C           4.3624    4.1108    1.6024 C.ar    1  LIG1       -0.0163
     38 C           3.4896    2.3422    2.9932 C.ar    1  LIG1       -0.0581
     39 C           4.4529    3.3191    2.7456 C.ar    1  LIG1       -0.0581
     40 C          -4.9569   -3.2865   -0.7437 C.ar    1  LIG1        0.0207
     41 C           2.0718    5.4850   -0.4744 C.3     1  LIG1        0.0790
     42 H          -3.4543    3.1797   -3.8707 H       1  LIG1        0.2095
     43 H           3.3100    0.5059    0.2542 H       1  LIG1        0.1754
     44 H          -7.8123   -4.3370   -0.9022 H       1  LIG1        0.1651
     45 H           2.5056    2.8859   -3.0107 H       1  LIG1        0.0653
     46 H          -3.2950   -1.1667   -0.9495 H       1  LIG1        0.0646
     47 H           0.9596    3.2421   -4.9256 H       1  LIG1        0.0622
     48 H           0.2022   -3.2874    0.4299 H       1  LIG1        0.0640
     49 H          -2.9447    3.6551   -0.4161 H       1  LIG1        0.0720
     50 H          -3.1026    1.9267   -0.5204 H       1  LIG1        0.0720
     51 H           0.6783   -1.0418   -5.3238 H       1  LIG1        0.0833
     52 H           1.7245    1.3542    2.3056 H       1  LIG1        0.0655
     53 H          -1.2283   -5.2932    0.6885 H       1  LIG1        0.0830
     54 H          -0.8099    2.1776   -6.4179 H       1  LIG1        0.0278
     55 H          -0.8168    0.4295   -6.6624 H       1  LIG1        0.0278
     56 H           0.4812    1.4129   -7.3774 H       1  LIG1        0.0278
     57 H          -1.6478    3.7252   -2.5708 H       1  LIG1        0.0591
     58 H          -1.8874    1.9844   -2.7582 H       1  LIG1        0.0591
     59 H           5.1027    4.8836    1.4133 H       1  LIG1        0.0655
     60 H           3.5517    1.7405    3.8976 H       1  LIG1        0.0619
     61 H           5.2693    3.4725    3.4473 H       1  LIG1        0.0619
     62 H           2.3009    6.4612   -0.9123 H       1  LIG1        0.0660
     63 H           1.6077    5.6570    0.5043 H       1  LIG1        0.0660
     64 H           1.3708    4.9759   -1.1427 H       1  LIG1        0.0660
@<TRIPOS>BOND
     1     1     4    2
     2     1     5    2
     3     1     8    1
     4     1    21    1
     5     2    18    1
     6     2    24    1
     7     3    19    1
     8     3    29    1
     9     6    32    1
    10     6    41    1
    11     7    36    1
    12     8    17    1
    13     9    17   ar
    14     9    20   ar
    15    10    19   ar
    16    10    20   ar
    17    11    21   ar
    18    11    31   ar
    19    12    30   ar
    20    12    34   ar
    21    13    15   ar
    22    13    40   ar
    23    14    16   ar
    24    14    40   ar
    25    15    16   ar
    26    17    18   ar
    27    18    19   ar
    28    20    22    1
    29    21    23   ar
    30    22    25   ar
    31    22    28   ar
    32    23    27   ar
    33    24    32   ar
    34    24    33   ar
    35    25    30   ar
    36    26    27   ar
    37    26    31   ar
    38    26    35    1
    39    28    34   ar
    40    29    36    1
    41    30    40    1
    42    32    37   ar
    43    33    38   ar
    44    37    39   ar
    45    38    39   ar
    46     7    42    1
    47     8    43    1
    48    15    44    1
    49    23    45    1
    50    25    46    1
    51    27    47    1
    52    28    48    1
    53    29    49    1
    54    29    50    1
    55    31    51    1
    56    33    52    1
    57    34    53    1
    58    35    54    1
    59    35    55    1
    60    35    56    1
    61    36    57    1
    62    36    58    1
    63    37    59    1
    64    38    60    1
    65    39    61    1
    66    41    62    1
    67    41    63    1
    68    41    64    1
@<TRIPOS>MOLECULE
6433095
 64 68 0 0 0
SMALL
GASTEIGER

@<TRIPOS>ATOM
      1 S           3.4860    0.4257   -1.6424 S.O2    1  LIG1        0.0908
      2 O           1.3462    2.7348    0.2051 O.3     1  LIG1       -0.4435
      3 O          -1.3897    2.8019   -0.5860 O.3     1  LIG1       -0.4715
      4 O           4.1317   -0.8564   -1.8380 O.2     1  LIG1       -0.1484
      5 O           4.2931    1.6278   -1.5684 O.2     1  LIG1       -0.1484
      6 O          -0.2470    2.1061    2.5192 O.3     1  LIG1       -0.4914
      7 O          -3.6376    4.4909    0.2918 O.3     1  LIG1       -0.3917
      8 N           2.6602    0.3397   -0.1564 N.pl3   1  LIG1       -0.1950
      9 N           0.6302   -0.7509   -0.4792 N.ar    1  LIG1       -0.2073
     10 N          -1.4093    0.4580   -0.6756 N.ar    1  LIG1       -0.1899
     11 N           1.5983    1.8040   -2.9365 N.ar    1  LIG1       -0.2351
     12 N          -2.9596   -4.3287   -0.2402 N.ar    1  LIG1       -0.2552
     13 N           0.3497   -5.9114   -0.3838 N.ar    1  LIG1       -0.5621
     14 N          -1.6984   -6.8499   -0.1723 N.ar    1  LIG1       -0.1535
     15 N           0.3646   -7.2483   -0.2806 N.ar    1  LIG1       -0.3597
     16 N          -0.8233   -7.8455   -0.1590 N.ar    1  LIG1       -0.0878
     17 C           1.2411    0.4182   -0.2309 C.ar    1  LIG1        0.1882
     18 C           0.6053    1.6363   -0.1242 C.ar    1  LIG1        0.2307
     19 C          -0.7277    1.6007   -0.4625 C.ar    1  LIG1        0.2641
     20 C          -0.7051   -0.6870   -0.6026 C.ar    1  LIG1        0.1659
     21 C           2.3027    0.6369   -2.9741 C.ar    1  LIG1        0.1969
     22 C          -1.4724   -1.9456   -0.5291 C.ar    1  LIG1        0.0227
     23 C           2.1722   -0.3232   -3.9641 C.ar    1  LIG1       -0.0160
     24 C           0.8079    3.6784    1.0549 C.ar    1  LIG1        0.1702
     25 C          -0.8437   -3.2015   -0.5026 C.ar    1  LIG1       -0.0252
     26 C           0.4869    1.0858   -4.9681 C.ar    1  LIG1       -0.0322
     27 C           1.2439   -0.0898   -4.9753 C.ar    1  LIG1       -0.0541
     28 C          -2.8712   -1.9322   -0.4088 C.ar    1  LIG1       -0.0328
     29 C          -2.7319    2.7045   -1.0633 C.3     1  LIG1        0.1143
     30 C          -1.6077   -4.3599   -0.3568 C.ar    1  LIG1        0.0708
     31 C           0.7037    1.9909   -3.9322 C.ar    1  LIG1        0.0327
     32 C          -0.0009    3.4109    2.1728 C.ar    1  LIG1        0.1621
     33 C           1.1600    4.9973    0.7478 C.ar    1  LIG1       -0.0157
     34 C          -3.5577   -3.1243   -0.2655 C.ar    1  LIG1        0.0289
     35 C          -0.5365    1.3677   -6.0233 C.3     1  LIG1       -0.0383
     36 C          -3.3217    4.1127   -1.0480 C.3     1  LIG1        0.0783
     37 C          -0.4745    4.4770    2.9460 C.ar    1  LIG1       -0.0163
     38 C           0.6773    6.0529    1.5189 C.ar    1  LIG1       -0.0581
     39 C          -0.1463    5.7930    2.6117 C.ar    1  LIG1       -0.0581
     40 C          -0.9777   -5.6809   -0.3070 C.ar    1  LIG1        0.0207
     41 C          -1.6038    1.8516    2.8869 C.3     1  LIG1        0.0790
     42 H          -3.7049    5.4609    0.3051 H       1  LIG1        0.2095
     43 H           3.0184    1.1290    0.3873 H       1  LIG1        0.1754
     44 H           1.2286   -7.7828   -0.2946 H       1  LIG1        0.1651
     45 H           2.7719   -1.2274   -3.9553 H       1  LIG1        0.0653
     46 H           0.2397   -3.2744   -0.5751 H       1  LIG1        0.0646
     47 H           1.1179   -0.8260   -5.7658 H       1  LIG1        0.0622
     48 H          -3.4264   -0.9985   -0.3999 H       1  LIG1        0.0640
     49 H          -3.3260    2.0506   -0.4140 H       1  LIG1        0.0720
     50 H          -2.7220    2.3257   -2.0921 H       1  LIG1        0.0720
     51 H           0.1417    2.9202   -3.8721 H       1  LIG1        0.0833
     52 H           1.8078    5.1988   -0.1021 H       1  LIG1        0.0655
     53 H          -4.6383   -3.1395   -0.1527 H       1  LIG1        0.0830
     54 H          -0.5168    0.6103   -6.8138 H       1  LIG1        0.0278
     55 H          -0.3444    2.3394   -6.4900 H       1  LIG1        0.0278
     56 H          -1.5392    1.3724   -5.5840 H       1  LIG1        0.0278
     57 H          -2.6039    4.8372   -1.4481 H       1  LIG1        0.0591
     58 H          -4.2452    4.1505   -1.6323 H       1  LIG1        0.0591
     59 H          -1.0849    4.3012    3.8262 H       1  LIG1        0.0655
     60 H           0.9497    7.0752    1.2707 H       1  LIG1        0.0619
     61 H          -0.5201    6.6142    3.2179 H       1  LIG1        0.0619
     62 H          -1.7832    0.7777    2.7736 H       1  LIG1        0.0660
     63 H          -2.3131    2.3777    2.2377 H       1  LIG1        0.0660
     64 H          -1.7736    2.1107    3.9361 H       1  LIG1        0.0660
@<TRIPOS>BOND
     1     1     4    2
     2     1     5    2
     3     1     8    1
     4     1    21    1
     5     2    18    1
     6     2    24    1
     7     3    19    1
     8     3    29    1
     9     6    32    1
    10     6    41    1
    11     7    36    1
    12     8    17    1
    13     9    17   ar
    14     9    20   ar
    15    10    19   ar
    16    10    20   ar
    17    11    21   ar
    18    11    31   ar
    19    12    30   ar
    20    12    34   ar
    21    13    15   ar
    22    13    40   ar
    23    14    16   ar
    24    14    40   ar
    25    15    16   ar
    26    17    18   ar
    27    18    19   ar
    28    20    22    1
    29    21    23   ar
    30    22    25   ar
    31    22    28   ar
    32    23    27   ar
    33    24    32   ar
    34    24    33   ar
    35    25    30   ar
    36    26    27   ar
    37    26    31   ar
    38    26    35    1
    39    28    34   ar
    40    29    36    1
    41    30    40    1
    42    32    37   ar
    43    33    38   ar
    44    37    39   ar
    45    38    39   ar
    46     7    42    1
    47     8    43    1
    48    15    44    1
    49    23    45    1
    50    25    46    1
    51    27    47    1
    52    28    48    1
    53    29    49    1
    54    29    50    1
    55    31    51    1
    56    33    52    1
    57    34    53    1
    58    35    54    1
    59    35    55    1
    60    35    56    1
    61    36    57    1
    62    36    58    1
    63    37    59    1
    64    38    60    1
    65    39    61    1
    66    41    62    1
    67    41    63    1
    68    41    64    1
@<TRIPOS>MOLECULE
6433095
 64 68 0 0 0
SMALL
GASTEIGER

@<TRIPOS>ATOM
      1 S           3.5468    0.4352   -1.9397 S.O2    1  LIG1        0.0908
      2 O           1.4749    2.6308   -0.0626 O.3     1  LIG1       -0.4435
      3 O          -1.2004    2.6446    0.0993 O.3     1  LIG1       -0.4715
      4 O           4.3957   -0.6582   -2.3647 O.2     1  LIG1       -0.1484
      5 O           4.1588    1.7149   -1.6350 O.2     1  LIG1       -0.1484
      6 O           3.2776    4.7298   -0.3353 O.3     1  LIG1       -0.4914
      7 O          -3.3402    3.0807    2.1219 O.3     1  LIG1       -0.3917
      8 N           2.7884   -0.0274   -0.4953 N.pl3   1  LIG1       -0.1950
      9 N           0.6864   -0.9298   -0.5019 N.ar    1  LIG1       -0.2073
     10 N          -1.3074    0.3269   -0.2557 N.ar    1  LIG1       -0.1899
     11 N           1.8533   -0.3710   -3.8273 N.ar    1  LIG1       -0.2351
     12 N          -2.9902   -4.4316   -0.3535 N.ar    1  LIG1       -0.2552
     13 N          -1.6860   -6.9791   -0.6445 N.ar    1  LIG1       -0.5621
     14 N           0.3388   -6.0097   -0.3722 N.ar    1  LIG1       -0.1535
     15 N          -0.6663   -7.8435   -0.6075 N.ar    1  LIG1       -0.3597
     16 N           0.5506   -7.3157   -0.4455 N.ar    1  LIG1       -0.0878
     17 C           1.3878    0.2084   -0.3861 C.ar    1  LIG1        0.1882
     18 C           0.8137    1.4436   -0.1518 C.ar    1  LIG1        0.2307
     19 C          -0.5661    1.4392   -0.1308 C.ar    1  LIG1        0.2641
     20 C          -0.6476   -0.8312   -0.4115 C.ar    1  LIG1        0.1659
     21 C           2.2970    0.7385   -3.1845 C.ar    1  LIG1        0.1969
     22 C          -1.4465   -2.0697   -0.4121 C.ar    1  LIG1        0.0227
     23 C           1.9487    2.0386   -3.5229 C.ar    1  LIG1       -0.0160
     24 C           2.3893    2.8414    0.9446 C.ar    1  LIG1        0.1702
     25 C          -0.8451   -3.3371   -0.4811 C.ar    1  LIG1       -0.0252
     26 C           0.6230    1.1000   -5.3070 C.ar    1  LIG1       -0.0322
     27 C           1.0870    2.2144   -4.6008 C.ar    1  LIG1       -0.0541
     28 C          -2.8457   -2.0323   -0.3097 C.ar    1  LIG1       -0.0328
     29 C          -2.6135    2.6575   -0.1433 C.3     1  LIG1        0.1143
     30 C          -1.6358   -4.4849   -0.4465 C.ar    1  LIG1        0.0708
     31 C           1.0402   -0.1597   -4.8829 C.ar    1  LIG1        0.0327
     32 C           3.3060    3.8860    0.7466 C.ar    1  LIG1        0.1621
     33 C           2.4652    2.0799    2.1173 C.ar    1  LIG1       -0.0157
     34 C          -3.5611   -3.2158   -0.2851 C.ar    1  LIG1        0.0289
     35 C          -0.2126    1.2593   -6.5383 C.3     1  LIG1       -0.0383
     36 C          -3.2632    3.6523    0.8165 C.3     1  LIG1        0.0783
     37 C           4.3646    4.0715    1.6365 C.ar    1  LIG1       -0.0163
     38 C           3.5116    2.2886    3.0206 C.ar    1  LIG1       -0.0581
     39 C           4.4711    3.2686    2.7702 C.ar    1  LIG1       -0.0581
     40 C          -1.0226   -5.8146   -0.4922 C.ar    1  LIG1        0.0207
     41 C           2.0446    5.4410   -0.4428 C.3     1  LIG1        0.0790
     42 H          -3.7263    3.7524    2.7093 H       1  LIG1        0.2095
     43 H           3.2883    0.4956    0.2234 H       1  LIG1        0.1754
     44 H          -0.8050   -8.8458   -0.6988 H       1  LIG1        0.1651
     45 H           2.3550    2.8927   -2.9900 H       1  LIG1        0.0653
     46 H           0.2374   -3.4245   -0.5543 H       1  LIG1        0.0646
     47 H           0.8078    3.2195   -4.9082 H       1  LIG1        0.0622
     48 H          -3.3806   -1.0893   -0.2384 H       1  LIG1        0.0640
     49 H          -3.0950    1.6846   -0.0015 H       1  LIG1        0.0720
     50 H          -2.7655    2.9884   -1.1764 H       1  LIG1        0.0720
     51 H           0.7382   -1.0618   -5.4100 H       1  LIG1        0.0833
     52 H           1.7359    1.3078    2.3467 H       1  LIG1        0.0655
     53 H          -4.6444   -3.2151   -0.2011 H       1  LIG1        0.0830
     54 H          -0.8646    2.1350   -6.4573 H       1  LIG1        0.0278
     55 H          -0.8543    0.3862   -6.6938 H       1  LIG1        0.0278
     56 H           0.4334    1.3807   -7.4138 H       1  LIG1        0.0278
     57 H          -2.6814    4.5765    0.8832 H       1  LIG1        0.0591
     58 H          -4.2828    3.8801    0.4916 H       1  LIG1        0.0591
     59 H           5.1039    4.8447    1.4438 H       1  LIG1        0.0655
     60 H           3.5867    1.6767    3.9170 H       1  LIG1        0.0619
     61 H           5.2975    3.4147    3.4616 H       1  LIG1        0.0619
     62 H           2.2629    6.4247   -0.8697 H       1  LIG1        0.0660
     63 H           1.5555    5.5977    0.5260 H       1  LIG1        0.0660
     64 H           1.3706    4.9224   -1.1312 H       1  LIG1        0.0660
@<TRIPOS>BOND
     1     1     4    2
     2     1     5    2
     3     1     8    1
     4     1    21    1
     5     2    18    1
     6     2    24    1
     7     3    19    1
     8     3    29    1
     9     6    32    1
    10     6    41    1
    11     7    36    1
    12     8    17    1
    13     9    17   ar
    14     9    20   ar
    15    10    19   ar
    16    10    20   ar
    17    11    21   ar
    18    11    31   ar
    19    12    30   ar
    20    12    34   ar
    21    13    15   ar
    22    13    40   ar
    23    14    16   ar
    24    14    40   ar
    25    15    16   ar
    26    17    18   ar
    27    18    19   ar
    28    20    22    1
    29    21    23   ar
    30    22    25   ar
    31    22    28   ar
    32    23    27   ar
    33    24    32   ar
    34    24    33   ar
    35    25    30   ar
    36    26    27   ar
    37    26    31   ar
    38    26    35    1
    39    28    34   ar
    40    29    36    1
    41    30    40    1
    42    32    37   ar
    43    33    38   ar
    44    37    39   ar
    45    38    39   ar
    46     7    42    1
    47     8    43    1
    48    15    44    1
    49    23    45    1
    50    25    46    1
    51    27    47    1
    52    28    48    1
    53    29    49    1
    54    29    50    1
    55    31    51    1
    56    33    52    1
    57    34    53    1
    58    35    54    1
    59    35    55    1
    60    35    56    1
    61    36    57    1
    62    36    58    1
    63    37    59    1
    64    38    60    1
    65    39    61    1
    66    41    62    1
    67    41    63    1
    68    41    64    1
@<TRIPOS>MOLECULE
6433095
 64 68 0 0 0
SMALL
GASTEIGER

@<TRIPOS>ATOM
      1 S           3.3594    0.0193   -1.6168 S.O2    1  LIG1        0.0908
      2 O           1.2409    2.8875    0.0182 O.3     1  LIG1       -0.4435
      3 O          -1.5881    2.7749   -0.3157 O.3     1  LIG1       -0.4715
      4 O           3.4298   -1.4295   -1.5667 O.2     1  LIG1       -0.1484
      5 O           4.5742    0.7985   -1.7561 O.2     1  LIG1       -0.1484
      6 O           1.9926    5.3748   -0.4875 O.3     1  LIG1       -0.4914
      7 O          -2.3427    1.1548   -2.9299 O.3     1  LIG1       -0.3917
      8 N           2.6186    0.5598   -0.1987 N.pl3   1  LIG1       -0.1950
      9 N           0.6127   -0.6767   -0.2657 N.ar    1  LIG1       -0.2073
     10 N          -1.4833    0.4482   -0.1892 N.ar    1  LIG1       -0.1899
     11 N           1.9850    1.7952   -3.0638 N.ar    1  LIG1       -0.2351
     12 N          -3.0188   -4.2917   -0.1906 N.ar    1  LIG1       -0.2552
     13 N          -2.1560   -6.5627   -1.6788 N.ar    1  LIG1       -0.5621
     14 N          -0.1168   -5.6453   -2.0130 N.ar    1  LIG1       -0.1535
     15 N          -1.3091   -7.3485   -2.3497 N.ar    1  LIG1       -0.3597
     16 N          -0.0903   -6.8469   -2.5729 N.ar    1  LIG1       -0.0878
     17 C           1.1964    0.5315   -0.1743 C.ar    1  LIG1        0.1882
     18 C           0.5200    1.7319   -0.0739 C.ar    1  LIG1        0.2307
     19 C          -0.8414    1.6244   -0.2020 C.ar    1  LIG1        0.2641
     20 C          -0.7308   -0.6656   -0.2259 C.ar    1  LIG1        0.1659
     21 C           2.2578    0.4658   -2.9625 C.ar    1  LIG1        0.1969
     22 C          -1.4736   -1.9359   -0.1973 C.ar    1  LIG1        0.0227
     23 C           1.7311   -0.5161   -3.7857 C.ar    1  LIG1       -0.0160
     24 C           0.8737    3.8455    0.9405 C.ar    1  LIG1        0.1702
     25 C          -0.9931   -3.1138   -0.7882 C.ar    1  LIG1       -0.0252
     26 C           0.5811    1.2468   -4.9674 C.ar    1  LIG1       -0.0322
     27 C           0.8770   -0.1103   -4.8056 C.ar    1  LIG1       -0.0541
     28 C          -2.7407   -1.9886    0.4085 C.ar    1  LIG1       -0.0328
     29 C          -2.8166    2.6216   -1.0398 C.3     1  LIG1        0.1143
     30 C          -1.7951   -4.2576   -0.7838 C.ar    1  LIG1        0.0708
     31 C           1.1620    2.1497   -4.0766 C.ar    1  LIG1        0.0327
     32 C           1.2786    5.1596    0.6645 C.ar    1  LIG1        0.1621
     33 C           0.1931    3.5684    2.1327 C.ar    1  LIG1       -0.0157
     34 C          -3.4599   -3.1666    0.3943 C.ar    1  LIG1        0.0289
     35 C          -0.2968    1.7213   -6.0835 C.3     1  LIG1       -0.0383
     36 C          -2.5814    2.5071   -2.5498 C.3     1  LIG1        0.0783
     37 C           0.9051    6.1993    1.5200 C.ar    1  LIG1       -0.0163
     38 C          -0.1660    4.6091    2.9910 C.ar    1  LIG1       -0.0581
     39 C           0.1764    5.9231    2.6778 C.ar    1  LIG1       -0.0581
     40 C          -1.3738   -5.4833   -1.4680 C.ar    1  LIG1        0.0207
     41 C           3.1131    6.2388   -0.3107 C.3     1  LIG1        0.0790
     42 H          -2.1060    1.1494   -3.8711 H       1  LIG1        0.2095
     43 H           3.0085    1.4761    0.0283 H       1  LIG1        0.1754
     44 H          -1.5776   -8.2714   -2.6795 H       1  LIG1        0.1651
     45 H           1.9739   -1.5637   -3.6419 H       1  LIG1        0.0653
     46 H          -0.0206   -3.1241   -1.2746 H       1  LIG1        0.0646
     47 H           0.4526   -0.8574   -5.4725 H       1  LIG1        0.0622
     48 H          -3.1700   -1.1107    0.8841 H       1  LIG1        0.0640
     49 H          -3.3713    3.5480   -0.8545 H       1  LIG1        0.0720
     50 H          -3.4253    1.8010   -0.6426 H       1  LIG1        0.0720
     51 H           0.9752    3.2185   -4.1587 H       1  LIG1        0.0833
     52 H          -0.0815    2.5544    2.4078 H       1  LIG1        0.0655
     53 H          -4.4404   -3.2327    0.8566 H       1  LIG1        0.0830
     54 H          -0.8067    0.8834   -6.5716 H       1  LIG1        0.0278
     55 H           0.2993    2.2434   -6.8381 H       1  LIG1        0.0278
     56 H          -1.0695    2.3977   -5.7041 H       1  LIG1        0.0278
     57 H          -3.4717    2.8401   -3.0911 H       1  LIG1        0.0591
     58 H          -1.7211    3.1087   -2.8594 H       1  LIG1        0.0591
     59 H           1.1563    7.2294    1.2889 H       1  LIG1        0.0655
     60 H          -0.7234    4.3941    3.8996 H       1  LIG1        0.0619
     61 H          -0.1230    6.7339    3.3371 H       1  LIG1        0.0619
     62 H           3.8166    6.0469   -1.1266 H       1  LIG1        0.0660
     63 H           3.6372    6.0479    0.6333 H       1  LIG1        0.0660
     64 H           2.8007    7.2855   -0.3744 H       1  LIG1        0.0660
@<TRIPOS>BOND
     1     1     4    2
     2     1     5    2
     3     1     8    1
     4     1    21    1
     5     2    18    1
     6     2    24    1
     7     3    19    1
     8     3    29    1
     9     6    32    1
    10     6    41    1
    11     7    36    1
    12     8    17    1
    13     9    17   ar
    14     9    20   ar
    15    10    19   ar
    16    10    20   ar
    17    11    21   ar
    18    11    31   ar
    19    12    30   ar
    20    12    34   ar
    21    13    15   ar
    22    13    40   ar
    23    14    16   ar
    24    14    40   ar
    25    15    16   ar
    26    17    18   ar
    27    18    19   ar
    28    20    22    1
    29    21    23   ar
    30    22    25   ar
    31    22    28   ar
    32    23    27   ar
    33    24    32   ar
    34    24    33   ar
    35    25    30   ar
    36    26    27   ar
    37    26    31   ar
    38    26    35    1
    39    28    34   ar
    40    29    36    1
    41    30    40    1
    42    32    37   ar
    43    33    38   ar
    44    37    39   ar
    45    38    39   ar
    46     7    42    1
    47     8    43    1
    48    15    44    1
    49    23    45    1
    50    25    46    1
    51    27    47    1
    52    28    48    1
    53    29    49    1
    54    29    50    1
    55    31    51    1
    56    33    52    1
    57    34    53    1
    58    35    54    1
    59    35    55    1
    60    35    56    1
    61    36    57    1
    62    36    58    1
    63    37    59    1
    64    38    60    1
    65    39    61    1
    66    41    62    1
    67    41    63    1
    68    41    64    1
@<TRIPOS>MOLECULE
6433095
 64 68 0 0 0
SMALL
GASTEIGER

@<TRIPOS>ATOM
      1 S           3.4845    0.4222   -1.4849 S.O2    1  LIG1        0.0908
      2 O           1.3312    2.7970    0.0104 O.3     1  LIG1       -0.4435
      3 O          -1.4028    2.8114   -0.7205 O.3     1  LIG1       -0.4715
      4 O           4.5801   -0.5286   -1.4135 O.2     1  LIG1       -0.1484
      5 O           3.7766    1.8360   -1.6460 O.2     1  LIG1       -0.1484
      6 O           0.0128    2.1057    2.4693 O.3     1  LIG1       -0.4914
      7 O          -3.5762    4.5465    0.3069 O.3     1  LIG1       -0.3917
      8 N           2.6271    0.2972   -0.0141 N.pl3   1  LIG1       -0.1950
      9 N           0.5851   -0.7373   -0.2841 N.ar    1  LIG1       -0.2073
     10 N          -1.4331    0.4627   -0.6605 N.ar    1  LIG1       -0.1899
     11 N           1.7778    0.9051   -3.4801 N.ar    1  LIG1       -0.2351
     12 N          -2.9744   -4.3208   -0.0831 N.ar    1  LIG1       -0.2552
     13 N          -5.6805   -2.3224   -1.5582 N.ar    1  LIG1       -0.5621
     14 N          -5.7145   -4.4420   -0.7639 N.ar    1  LIG1       -0.1535
     15 N          -6.8690   -2.9351   -1.6698 N.ar    1  LIG1       -0.3597
     16 N          -6.9349   -4.1870   -1.2129 N.ar    1  LIG1       -0.0878
     17 C           1.2125    0.4411   -0.1579 C.ar    1  LIG1        0.1882
     18 C           0.5982    1.6703   -0.2182 C.ar    1  LIG1        0.2307
     19 C          -0.7417    1.6157   -0.5353 C.ar    1  LIG1        0.2641
     20 C          -0.7414   -0.6756   -0.4777 C.ar    1  LIG1        0.1659
     21 C           2.3829   -0.1038   -2.7984 C.ar    1  LIG1        0.1969
     22 C          -1.4996   -1.9346   -0.3842 C.ar    1  LIG1        0.0227
     23 C           2.2449   -1.4507   -3.0914 C.ar    1  LIG1       -0.0160
     24 C           0.8505    3.7209    0.9174 C.ar    1  LIG1        0.1702
     25 C          -2.8483   -2.0130   -0.7649 C.ar    1  LIG1       -0.0252
     26 C           0.7765   -0.7919   -4.8919 C.ar    1  LIG1       -0.0322
     27 C           1.4150   -1.7949   -4.1550 C.ar    1  LIG1       -0.0541
     28 C          -0.9162   -3.0961    0.1438 C.ar    1  LIG1       -0.0328
     29 C          -2.7951    2.6829   -1.0227 C.3     1  LIG1        0.1143
     30 C          -3.5495   -3.2066   -0.6013 C.ar    1  LIG1        0.0708
     31 C           1.0028    0.5323   -4.5207 C.ar    1  LIG1        0.0327
     32 C           0.1747    3.4212    2.1133 C.ar    1  LIG1        0.1621
     33 C           1.1221    5.0531    0.5851 C.ar    1  LIG1       -0.0157
     34 C          -1.6798   -4.2422    0.2768 C.ar    1  LIG1        0.0289
     35 C          -0.0635   -1.1188   -6.0869 C.3     1  LIG1       -0.0383
     36 C          -3.3976    4.0848   -1.0324 C.3     1  LIG1        0.0783
     37 C          -0.2439    4.4679    2.9441 C.ar    1  LIG1       -0.0163
     38 C           0.6932    6.0884    1.4141 C.ar    1  LIG1       -0.0581
     39 C           0.0050    5.7956    2.5888 C.ar    1  LIG1       -0.0581
     40 C          -4.9612   -3.3064   -0.9761 C.ar    1  LIG1        0.0207
     41 C          -1.2564    1.8053    3.0495 C.3     1  LIG1        0.0790
     42 H          -3.6979    5.5101    0.2612 H       1  LIG1        0.2095
     43 H           2.9549    1.1037    0.5254 H       1  LIG1        0.1754
     44 H          -7.6787   -2.4767   -2.0791 H       1  LIG1        0.1651
     45 H           2.7577   -2.2092   -2.5091 H       1  LIG1        0.0653
     46 H          -3.3531   -1.1412   -1.1742 H       1  LIG1        0.0646
     47 H           1.2791   -2.8427   -4.4125 H       1  LIG1        0.0622
     48 H           0.1194   -3.1059    0.4741 H       1  LIG1        0.0640
     49 H          -3.3002    2.0736   -0.2638 H       1  LIG1        0.0720
     50 H          -2.9036    2.2333   -2.0164 H       1  LIG1        0.0720
     51 H           0.5592    1.3548   -5.0769 H       1  LIG1        0.0833
     52 H           1.6656    5.2808   -0.3290 H       1  LIG1        0.0655
     53 H          -1.2581   -5.1504    0.6986 H       1  LIG1        0.0830
     54 H          -0.4509   -2.1419   -6.0296 H       1  LIG1        0.0278
     55 H           0.5306   -1.0221   -7.0011 H       1  LIG1        0.0278
     56 H          -0.9259   -0.4471   -6.1507 H       1  LIG1        0.0278
     57 H          -2.7386    4.7885   -1.5518 H       1  LIG1        0.0591
     58 H          -4.3790    4.0768   -1.5144 H       1  LIG1        0.0591
     59 H          -0.7465    4.2708    3.8856 H       1  LIG1        0.0655
     60 H           0.9025    7.1205    1.1463 H       1  LIG1        0.0619
     61 H          -0.3245    6.6010    3.2408 H       1  LIG1        0.0619
     62 H          -1.4157    0.7263    2.9604 H       1  LIG1        0.0660
     63 H          -2.0771    2.3081    2.5251 H       1  LIG1        0.0660
     64 H          -1.2615    2.0562    4.1147 H       1  LIG1        0.0660
@<TRIPOS>BOND
     1     1     4    2
     2     1     5    2
     3     1     8    1
     4     1    21    1
     5     2    18    1
     6     2    24    1
     7     3    19    1
     8     3    29    1
     9     6    32    1
    10     6    41    1
    11     7    36    1
    12     8    17    1
    13     9    17   ar
    14     9    20   ar
    15    10    19   ar
    16    10    20   ar
    17    11    21   ar
    18    11    31   ar
    19    12    30   ar
    20    12    34   ar
    21    13    15   ar
    22    13    40   ar
    23    14    16   ar
    24    14    40   ar
    25    15    16   ar
    26    17    18   ar
    27    18    19   ar
    28    20    22    1
    29    21    23   ar
    30    22    25   ar
    31    22    28   ar
    32    23    27   ar
    33    24    32   ar
    34    24    33   ar
    35    25    30   ar
    36    26    27   ar
    37    26    31   ar
    38    26    35    1
    39    28    34   ar
    40    29    36    1
    41    30    40    1
    42    32    37   ar
    43    33    38   ar
    44    37    39   ar
    45    38    39   ar
    46     7    42    1
    47     8    43    1
    48    15    44    1
    49    23    45    1
    50    25    46    1
    51    27    47    1
    52    28    48    1
    53    29    49    1
    54    29    50    1
    55    31    51    1
    56    33    52    1
    57    34    53    1
    58    35    54    1
    59    35    55    1
    60    35    56    1
    61    36    57    1
    62    36    58    1
    63    37    59    1
    64    38    60    1
    65    39    61    1
    66    41    62    1
    67    41    63    1
    68    41    64    1
@<TRIPOS>MOLECULE
6433095
 64 68 0 0 0
SMALL
GASTEIGER

@<TRIPOS>ATOM
      1 S           3.5297    0.4601   -1.9535 S.O2    1  LIG1        0.0908
      2 O           1.5156    2.6345   -0.0794 O.3     1  LIG1       -0.4435
      3 O          -1.1642    2.6925    0.1060 O.3     1  LIG1       -0.4715
      4 O           4.3993   -0.6104   -2.3943 O.2     1  LIG1       -0.1484
      5 O           4.1173    1.7474   -1.6278 O.2     1  LIG1       -0.1484
      6 O           3.2784    4.7675   -0.3273 O.3     1  LIG1       -0.4914
      7 O          -4.7821    2.5451   -0.5900 O.3     1  LIG1       -0.3917
      8 N           2.7790   -0.0447   -0.5192 N.pl3   1  LIG1       -0.1950
      9 N           0.6660   -0.9155   -0.4504 N.ar    1  LIG1       -0.2073
     10 N          -1.3048    0.3619   -0.1267 N.ar    1  LIG1       -0.1899
     11 N           1.8261   -0.3597   -3.8262 N.ar    1  LIG1       -0.2351
     12 N          -3.0317   -4.3866   -0.3122 N.ar    1  LIG1       -0.2552
     13 N          -1.7344   -6.9389   -0.6372 N.ar    1  LIG1       -0.5621
     14 N           0.2916   -5.9800   -0.3398 N.ar    1  LIG1       -0.1535
     15 N          -0.7167   -7.8066   -0.6120 N.ar    1  LIG1       -0.3597
     16 N           0.5008   -7.2848   -0.4357 N.ar    1  LIG1       -0.0878
     17 C           1.3855    0.2154   -0.3785 C.ar    1  LIG1        0.1882
     18 C           0.8337    1.4579   -0.1375 C.ar    1  LIG1        0.2307
     19 C          -0.5433    1.4666   -0.0496 C.ar    1  LIG1        0.2641
     20 C          -0.6633   -0.8032   -0.3108 C.ar    1  LIG1        0.1659
     21 C           2.2744    0.7546   -3.1941 C.ar    1  LIG1        0.1969
     22 C          -1.4737   -2.0337   -0.3217 C.ar    1  LIG1        0.0227
     23 C           1.9272    2.0521   -3.5418 C.ar    1  LIG1       -0.0160
     24 C           2.4175    2.8571    0.9380 C.ar    1  LIG1        0.1702
     25 C          -0.8804   -3.3043   -0.4055 C.ar    1  LIG1       -0.0252
     26 C           0.6016    1.1025   -5.3197 C.ar    1  LIG1       -0.0322
     27 C           1.0664    2.2214   -4.6213 C.ar    1  LIG1       -0.0541
     28 C          -2.8728   -1.9876   -0.2300 C.ar    1  LIG1       -0.0328
     29 C          -2.5678    2.6300    0.3779 C.3     1  LIG1        0.1143
     30 C          -1.6773   -4.4477   -0.3955 C.ar    1  LIG1        0.0708
     31 C           1.0151   -0.1548   -4.8851 C.ar    1  LIG1        0.0327
     32 C           3.3163    3.9191    0.7506 C.ar    1  LIG1        0.1621
     33 C           2.5040    2.0888    2.1061 C.ar    1  LIG1       -0.0157
     34 C          -3.5953   -3.1676   -0.2306 C.ar    1  LIG1        0.0289
     35 C          -0.2295    1.2546   -6.5552 C.3     1  LIG1       -0.0383
     36 C          -3.3940    2.5312   -0.9028 C.3     1  LIG1        0.0783
     37 C           4.3655    4.1201    1.6479 C.ar    1  LIG1       -0.0163
     38 C           3.5406    2.3129    3.0167 C.ar    1  LIG1       -0.0581
     39 C           4.4812    3.3135    2.7781 C.ar    1  LIG1       -0.0581
     40 C          -1.0691   -5.7791   -0.4615 C.ar    1  LIG1        0.0207
     41 C           2.0354    5.4611   -0.4353 C.3     1  LIG1        0.0790
     42 H          -5.2646    2.4850   -1.4329 H       1  LIG1        0.2095
     43 H           3.2962    0.4435    0.2120 H       1  LIG1        0.1754
     44 H          -0.8575   -8.8066   -0.7219 H       1  LIG1        0.1651
     45 H           2.3364    2.9098   -3.0168 H       1  LIG1        0.0653
     46 H           0.2019   -3.3983   -0.4756 H       1  LIG1        0.0646
     47 H           0.7902    3.2248   -4.9370 H       1  LIG1        0.0622
     48 H          -3.4035   -1.0425   -0.1537 H       1  LIG1        0.0640
     49 H          -2.8316    3.5649    0.8878 H       1  LIG1        0.0720
     50 H          -2.8230    1.8401    1.0969 H       1  LIG1        0.0720
     51 H           0.7127   -1.0603   -5.4063 H       1  LIG1        0.0833
     52 H           1.7927    1.2984    2.3283 H       1  LIG1        0.0655
     53 H          -4.6795   -3.1615   -0.1586 H       1  LIG1        0.0830
     54 H          -0.8851    2.1282   -6.4794 H       1  LIG1        0.0278
     55 H          -0.8667    0.3781   -6.7114 H       1  LIG1        0.0278
     56 H           0.4202    1.3762   -7.4282 H       1  LIG1        0.0278
     57 H          -3.1697    3.3753   -1.5635 H       1  LIG1        0.0591
     58 H          -3.1718    1.6140   -1.4558 H       1  LIG1        0.0591
     59 H           5.0909    4.9081    1.4635 H       1  LIG1        0.0655
     60 H           3.6236    1.6967    3.9095 H       1  LIG1        0.0619
     61 H           5.3008    3.4717    3.4751 H       1  LIG1        0.0619
     62 H           2.2403    6.4491   -0.8588 H       1  LIG1        0.0660
     63 H           1.5421    5.6074    0.5330 H       1  LIG1        0.0660
     64 H           1.3705    4.9347   -1.1267 H       1  LIG1        0.0660
@<TRIPOS>BOND
     1     1     4    2
     2     1     5    2
     3     1     8    1
     4     1    21    1
     5     2    18    1
     6     2    24    1
     7     3    19    1
     8     3    29    1
     9     6    32    1
    10     6    41    1
    11     7    36    1
    12     8    17    1
    13     9    17   ar
    14     9    20   ar
    15    10    19   ar
    16    10    20   ar
    17    11    21   ar
    18    11    31   ar
    19    12    30   ar
    20    12    34   ar
    21    13    15   ar
    22    13    40   ar
    23    14    16   ar
    24    14    40   ar
    25    15    16   ar
    26    17    18   ar
    27    18    19   ar
    28    20    22    1
    29    21    23   ar
    30    22    25   ar
    31    22    28   ar
    32    23    27   ar
    33    24    32   ar
    34    24    33   ar
    35    25    30   ar
    36    26    27   ar
    37    26    31   ar
    38    26    35    1
    39    28    34   ar
    40    29    36    1
    41    30    40    1
    42    32    37   ar
    43    33    38   ar
    44    37    39   ar
    45    38    39   ar
    46     7    42    1
    47     8    43    1
    48    15    44    1
    49    23    45    1
    50    25    46    1
    51    27    47    1
    52    28    48    1
    53    29    49    1
    54    29    50    1
    55    31    51    1
    56    33    52    1
    57    34    53    1
    58    35    54    1
    59    35    55    1
    60    35    56    1
    61    36    57    1
    62    36    58    1
    63    37    59    1
    64    38    60    1
    65    39    61    1
    66    41    62    1
    67    41    63    1
    68    41    64    1
@<TRIPOS>MOLECULE
6433095
 64 68 0 0 0
SMALL
GASTEIGER

@<TRIPOS>ATOM
      1 S           3.4217    0.5476   -1.7191 S.O2    1  LIG1        0.0908
      2 O           1.4183    2.6904    0.2354 O.3     1  LIG1       -0.4435
      3 O          -1.3481    2.7902   -0.4816 O.3     1  LIG1       -0.4715
      4 O           4.7849    0.9241   -1.4088 O.2     1  LIG1       -0.1484
      5 O           2.5743    1.4283   -2.4975 O.2     1  LIG1       -0.1484
      6 O          -0.1453    2.0562    2.5493 O.3     1  LIG1       -0.4914
      7 O          -3.6164    4.5075    0.2854 O.3     1  LIG1       -0.3917
      8 N           2.6904    0.2637   -0.2061 N.pl3   1  LIG1       -0.1950
      9 N           0.6419   -0.7902   -0.4361 N.ar    1  LIG1       -0.2073
     10 N          -1.3910    0.4506   -0.5530 N.ar    1  LIG1       -0.1899
     11 N           2.8911   -1.1844   -3.6835 N.ar    1  LIG1       -0.2351
     12 N          -2.9907   -4.2945   -0.1149 N.ar    1  LIG1       -0.2552
     13 N          -0.2373   -5.7781   -2.0397 N.ar    1  LIG1       -0.5621
     14 N          -2.1651   -6.7101   -1.3068 N.ar    1  LIG1       -0.1535
     15 N          -0.3891   -7.0667   -2.3738 N.ar    1  LIG1       -0.3597
     16 N          -1.5122   -7.6583   -1.9618 N.ar    1  LIG1       -0.0878
     17 C           1.2752    0.3743   -0.2298 C.ar    1  LIG1        0.1882
     18 C           0.6601    1.6046   -0.1095 C.ar    1  LIG1        0.2307
     19 C          -0.6863    1.5861   -0.3956 C.ar    1  LIG1        0.2641
     20 C          -0.6961   -0.7003   -0.5084 C.ar    1  LIG1        0.1659
     21 C           3.4902   -1.0760   -2.4690 C.ar    1  LIG1        0.1969
     22 C          -1.4783   -1.9377   -0.3954 C.ar    1  LIG1        0.0227
     23 C           4.2118   -2.0851   -1.8478 C.ar    1  LIG1       -0.0160
     24 C           0.8768    3.6378    1.0833 C.ar    1  LIG1        0.1702
     25 C          -1.0193   -3.1548   -0.9139 C.ar    1  LIG1       -0.0252
     26 C           3.7022   -3.4684   -3.7580 C.ar    1  LIG1       -0.0322
     27 C           4.3100   -3.3053   -2.5095 C.ar    1  LIG1       -0.0541
     28 C          -2.7117   -1.9408    0.2733 C.ar    1  LIG1       -0.0328
     29 C          -2.6642    2.7117   -1.0285 C.3     1  LIG1        0.1143
     30 C          -1.8016   -4.2989   -0.7714 C.ar    1  LIG1        0.0708
     31 C           3.0144   -2.3806   -4.2947 C.ar    1  LIG1        0.0327
     32 C           0.0611    3.3661    2.1988 C.ar    1  LIG1        0.1621
     33 C           1.2127    4.9588    0.7652 C.ar    1  LIG1       -0.0157
     34 C          -3.4156   -3.1232    0.3937 C.ar    1  LIG1        0.0289
     35 C           3.7842   -4.7604   -4.5084 C.3     1  LIG1       -0.0383
     36 C          -3.2400    4.1262   -1.0376 C.3     1  LIG1        0.0783
     37 C          -0.4634    4.4366    2.9340 C.ar    1  LIG1       -0.0163
     38 C           0.6924    6.0145    1.5103 C.ar    1  LIG1       -0.0581
     39 C          -0.1576    5.7536    2.5822 C.ar    1  LIG1       -0.0581
     40 C          -1.3858   -5.5726   -1.3611 C.ar    1  LIG1        0.0207
     41 C          -1.4131    1.7720    3.1363 C.3     1  LIG1        0.0790
     42 H          -3.6999    5.4757    0.2855 H       1  LIG1        0.2095
     43 H           3.1444    0.8712    0.4757 H       1  LIG1        0.1754
     44 H           0.3075   -7.5717   -2.9148 H       1  LIG1        0.1651
     45 H           4.6916   -1.9258   -0.8890 H       1  LIG1        0.0653
     46 H          -0.0663   -3.2005   -1.4375 H       1  LIG1        0.0646
     47 H           4.8669   -4.1194   -2.0520 H       1  LIG1        0.0622
     48 H          -3.1151   -1.0309    0.7101 H       1  LIG1        0.0640
     49 H          -3.2978    2.0617   -0.4133 H       1  LIG1        0.0720
     50 H          -2.6073    2.3366   -2.0585 H       1  LIG1        0.0720
     51 H           2.5321   -2.4464   -5.2678 H       1  LIG1        0.0833
     52 H           1.8671    5.1622   -0.0788 H       1  LIG1        0.0655
     53 H          -4.3674   -3.1610    0.9176 H       1  LIG1        0.0830
     54 H           4.3428   -5.5155   -3.9460 H       1  LIG1        0.0278
     55 H           4.2917   -4.6111   -5.4665 H       1  LIG1        0.0278
     56 H           2.7792   -5.1548   -4.6904 H       1  LIG1        0.0278
     57 H          -2.4974    4.8436   -1.4024 H       1  LIG1        0.0591
     58 H          -4.1344    4.1732   -1.6659 H       1  LIG1        0.0591
     59 H          -1.1021    4.2720    3.7930 H       1  LIG1        0.0655
     60 H           0.9477    7.0398    1.2520 H       1  LIG1        0.0619
     61 H          -0.5743    6.5777    3.1582 H       1  LIG1        0.0619
     62 H          -1.5786    0.6927    3.0696 H       1  LIG1        0.0660
     63 H          -2.2339    2.2670    2.6020 H       1  LIG1        0.0660
     64 H          -1.4156    2.0442    4.1967 H       1  LIG1        0.0660
@<TRIPOS>BOND
     1     1     4    2
     2     1     5    2
     3     1     8    1
     4     1    21    1
     5     2    18    1
     6     2    24    1
     7     3    19    1
     8     3    29    1
     9     6    32    1
    10     6    41    1
    11     7    36    1
    12     8    17    1
    13     9    17   ar
    14     9    20   ar
    15    10    19   ar
    16    10    20   ar
    17    11    21   ar
    18    11    31   ar
    19    12    30   ar
    20    12    34   ar
    21    13    15   ar
    22    13    40   ar
    23    14    16   ar
    24    14    40   ar
    25    15    16   ar
    26    17    18   ar
    27    18    19   ar
    28    20    22    1
    29    21    23   ar
    30    22    25   ar
    31    22    28   ar
    32    23    27   ar
    33    24    32   ar
    34    24    33   ar
    35    25    30   ar
    36    26    27   ar
    37    26    31   ar
    38    26    35    1
    39    28    34   ar
    40    29    36    1
    41    30    40    1
    42    32    37   ar
    43    33    38   ar
    44    37    39   ar
    45    38    39   ar
    46     7    42    1
    47     8    43    1
    48    15    44    1
    49    23    45    1
    50    25    46    1
    51    27    47    1
    52    28    48    1
    53    29    49    1
    54    29    50    1
    55    31    51    1
    56    33    52    1
    57    34    53    1
    58    35    54    1
    59    35    55    1
    60    35    56    1
    61    36    57    1
    62    36    58    1
    63    37    59    1
    64    38    60    1
    65    39    61    1
    66    41    62    1
    67    41    63    1
    68    41    64    1
@<TRIPOS>MOLECULE
6433095
 64 68 0 0 0
SMALL
GASTEIGER

@<TRIPOS>ATOM
      1 S           3.5278    0.4729   -1.9963 S.O2    1  LIG1        0.0908
      2 O           1.5160    2.6290   -0.1106 O.3     1  LIG1       -0.4435
      3 O          -1.1627    2.6702    0.1383 O.3     1  LIG1       -0.4715
      4 O           4.3962   -0.5924   -2.4440 O.2     1  LIG1       -0.1484
      5 O           4.1116    1.7588   -1.6703 O.2     1  LIG1       -0.1484
      6 O           3.2737    4.7680   -0.3543 O.3     1  LIG1       -0.4914
      7 O          -4.7827    2.5676   -0.5468 O.3     1  LIG1       -0.3917
      8 N           2.7872   -0.0392   -0.5607 N.pl3   1  LIG1       -0.1950
      9 N           0.6859   -0.9258   -0.4421 N.ar    1  LIG1       -0.2073
     10 N          -1.2859    0.3328   -0.0405 N.ar    1  LIG1       -0.1899
     11 N           1.8198   -0.3485   -3.8634 N.ar    1  LIG1       -0.2351
     12 N          -2.8641   -4.4738    0.1398 N.ar    1  LIG1       -0.2552
     13 N          -5.2764   -2.3005    1.8617 N.ar    1  LIG1       -0.5621
     14 N          -5.3010   -4.5467    1.5870 N.ar    1  LIG1       -0.1535
     15 N          -6.3419   -2.9096    2.4024 N.ar    1  LIG1       -0.3597
     16 N          -6.3964   -4.2363    2.2662 N.ar    1  LIG1       -0.0878
     17 C           1.3939    0.2126   -0.4056 C.ar    1  LIG1        0.1882
     18 C           0.8362    1.4511   -0.1556 C.ar    1  LIG1        0.2307
     19 C          -0.5374    1.4479   -0.0210 C.ar    1  LIG1        0.2641
     20 C          -0.6362   -0.8262   -0.2356 C.ar    1  LIG1        0.1659
     21 C           2.2639    0.7663   -3.2284 C.ar    1  LIG1        0.1969
     22 C          -1.4127   -2.0712   -0.1377 C.ar    1  LIG1        0.0227
     23 C           1.9109    2.0636   -3.5709 C.ar    1  LIG1       -0.0160
     24 C           2.4139    2.8581    0.9105 C.ar    1  LIG1        0.1702
     25 C          -2.6646   -2.1022    0.5000 C.ar    1  LIG1       -0.0252
     26 C           0.5873    1.1144   -5.3497 C.ar    1  LIG1       -0.0322
     27 C           1.0475    2.2330   -4.6479 C.ar    1  LIG1       -0.0541
     28 C          -0.9192   -3.2822   -0.6384 C.ar    1  LIG1       -0.0328
     29 C          -2.5646    2.6078    0.4149 C.3     1  LIG1        0.1143
     30 C          -3.3505   -3.3073    0.6326 C.ar    1  LIG1        0.0708
     31 C           1.0067   -0.1421   -4.9205 C.ar    1  LIG1        0.0327
     32 C           3.3114    3.9211    0.7247 C.ar    1  LIG1        0.1621
     33 C           2.4988    2.0914    2.0803 C.ar    1  LIG1       -0.0157
     34 C          -1.6689   -4.4354   -0.4824 C.ar    1  LIG1        0.0289
     35 C          -0.2461    1.2676   -6.5840 C.3     1  LIG1       -0.0383
     36 C          -3.3972    2.4716   -0.8581 C.3     1  LIG1        0.0783
     37 C           4.3578    4.1249    1.6248 C.ar    1  LIG1       -0.0163
     38 C           3.5321    2.3186    2.9941 C.ar    1  LIG1       -0.0581
     39 C           4.4715    3.3196    2.7564 C.ar    1  LIG1       -0.0581
     40 C          -4.6284   -3.3673    1.3459 C.ar    1  LIG1        0.0207
     41 C           2.0333    5.4678   -0.4545 C.3     1  LIG1        0.0790
     42 H          -5.2709    2.4061   -1.3732 H       1  LIG1        0.2095
     43 H           3.3060    0.4466    0.1709 H       1  LIG1        0.1754
     44 H          -7.0697   -2.3958    2.8911 H       1  LIG1        0.1651
     45 H           2.3181    2.9222   -3.0434 H       1  LIG1        0.0653
     46 H          -3.0900   -1.1920    0.9176 H       1  LIG1        0.0646
     47 H           0.7670    3.2363   -4.9599 H       1  LIG1        0.0622
     48 H           0.0440   -3.3323   -1.1401 H       1  LIG1        0.0640
     49 H          -2.8299    3.5548    0.9019 H       1  LIG1        0.0720
     50 H          -2.8134    1.8353    1.1551 H       1  LIG1        0.0720
     51 H           0.7078   -1.0469   -5.4450 H       1  LIG1        0.0833
     52 H           1.7886    1.3002    2.3022 H       1  LIG1        0.0655
     53 H          -1.3114   -5.3898   -0.8590 H       1  LIG1        0.0830
     54 H          -0.9046    2.1388   -6.5042 H       1  LIG1        0.0278
     55 H          -0.8807    0.3899   -6.7415 H       1  LIG1        0.0278
     56 H           0.4023    1.3943   -7.4569 H       1  LIG1        0.0278
     57 H          -3.1384    3.2639   -1.5686 H       1  LIG1        0.0591
     58 H          -3.2168    1.5134   -1.3537 H       1  LIG1        0.0591
     59 H           5.0824    4.9136    1.4417 H       1  LIG1        0.0655
     60 H           3.6127    1.7037    3.8881 H       1  LIG1        0.0619
     61 H           5.2890    3.4802    3.4555 H       1  LIG1        0.0619
     62 H           2.2402    6.4541   -0.8811 H       1  LIG1        0.0660
     63 H           1.5479    5.6183    0.5172 H       1  LIG1        0.0660
     64 H           1.3605    4.9434   -1.1396 H       1  LIG1        0.0660
@<TRIPOS>BOND
     1     1     4    2
     2     1     5    2
     3     1     8    1
     4     1    21    1
     5     2    18    1
     6     2    24    1
     7     3    19    1
     8     3    29    1
     9     6    32    1
    10     6    41    1
    11     7    36    1
    12     8    17    1
    13     9    17   ar
    14     9    20   ar
    15    10    19   ar
    16    10    20   ar
    17    11    21   ar
    18    11    31   ar
    19    12    30   ar
    20    12    34   ar
    21    13    15   ar
    22    13    40   ar
    23    14    16   ar
    24    14    40   ar
    25    15    16   ar
    26    17    18   ar
    27    18    19   ar
    28    20    22    1
    29    21    23   ar
    30    22    25   ar
    31    22    28   ar
    32    23    27   ar
    33    24    32   ar
    34    24    33   ar
    35    25    30   ar
    36    26    27   ar
    37    26    31   ar
    38    26    35    1
    39    28    34   ar
    40    29    36    1
    41    30    40    1
    42    32    37   ar
    43    33    38   ar
    44    37    39   ar
    45    38    39   ar
    46     7    42    1
    47     8    43    1
    48    15    44    1
    49    23    45    1
    50    25    46    1
    51    27    47    1
    52    28    48    1
    53    29    49    1
    54    29    50    1
    55    31    51    1
    56    33    52    1
    57    34    53    1
    58    35    54    1
    59    35    55    1
    60    35    56    1
    61    36    57    1
    62    36    58    1
    63    37    59    1
    64    38    60    1
    65    39    61    1
    66    41    62    1
    67    41    63    1
    68    41    64    1
@<TRIPOS>MOLECULE
6433095
 64 68 0 0 0
SMALL
GASTEIGER

@<TRIPOS>ATOM
      1 S           3.3082    0.4542   -1.8049 S.O2    1  LIG1        0.0908
      2 O           1.3687    2.6953    0.1877 O.3     1  LIG1       -0.4435
      3 O          -1.4425    2.6937   -0.3566 O.3     1  LIG1       -0.4715
      4 O           2.9467    1.7820   -2.2691 O.2     1  LIG1       -0.1484
      5 O           3.0033   -0.7251   -2.5861 O.2     1  LIG1       -0.1484
      6 O          -0.0067    2.0657    2.6275 O.3     1  LIG1       -0.4914
      7 O          -3.9347    3.7564    0.8803 O.3     1  LIG1       -0.3917
      8 N           2.6960    0.2659   -0.2292 N.pl3   1  LIG1       -0.1950
      9 N           0.6617   -0.8166   -0.3715 N.ar    1  LIG1       -0.2073
     10 N          -1.4015    0.3580   -0.4636 N.ar    1  LIG1       -0.1899
     11 N           5.4827    0.4952   -0.2511 N.ar    1  LIG1       -0.2351
     12 N          -2.7260   -4.4770    0.1798 N.ar    1  LIG1       -0.2552
     13 N          -5.0002   -4.5091    1.9661 N.ar    1  LIG1       -0.5621
     14 N          -5.1124   -2.2515    1.9110 N.ar    1  LIG1       -0.1535
     15 N          -6.0080   -3.9941    2.6782 N.ar    1  LIG1       -0.3597
     16 N          -6.1166   -2.6617    2.6716 N.ar    1  LIG1       -0.0878
     17 C           1.2759    0.3624   -0.1968 C.ar    1  LIG1        0.1882
     18 C           0.6299    1.5787   -0.0877 C.ar    1  LIG1        0.2307
     19 C          -0.7289    1.5159   -0.3213 C.ar    1  LIG1        0.2641
     20 C          -0.6750   -0.7702   -0.4292 C.ar    1  LIG1        0.1659
     21 C           5.0796    0.4828   -1.5520 C.ar    1  LIG1        0.1969
     22 C          -1.4013   -2.0366   -0.2830 C.ar    1  LIG1        0.0227
     23 C           5.9202    0.4891   -2.6538 C.ar    1  LIG1       -0.0160
     24 C           0.8561    3.6430    1.0508 C.ar    1  LIG1        0.1702
     25 C          -2.6137   -2.0862    0.4248 C.ar    1  LIG1       -0.0252
     26 C           7.7602    0.4923   -1.0949 C.ar    1  LIG1       -0.0322
     27 C           7.2891    0.4992   -2.4121 C.ar    1  LIG1       -0.0541
     28 C          -0.8802   -3.2427   -0.7637 C.ar    1  LIG1       -0.0328
     29 C          -2.7671    2.5867   -0.8862 C.3     1  LIG1        0.1143
     30 C          -3.2325   -3.3110    0.6560 C.ar    1  LIG1        0.0708
     31 C           6.8207    0.4843   -0.0630 C.ar    1  LIG1        0.0327
     32 C           0.1494    3.3714    2.2358 C.ar    1  LIG1        0.1621
     33 C           1.1191    4.9675    0.6833 C.ar    1  LIG1       -0.0157
     34 C          -1.5727   -4.4165   -0.5186 C.ar    1  LIG1        0.0289
     35 C           9.2262    0.4659   -0.7912 C.3     1  LIG1       -0.0383
     36 C          -3.5355    3.8447   -0.4888 C.3     1  LIG1        0.0783
     37 C          -0.3156    4.4377    3.0150 C.ar    1  LIG1       -0.0163
     38 C           0.6469    6.0225    1.4627 C.ar    1  LIG1       -0.0581
     39 C          -0.0772    5.7574    2.6227 C.ar    1  LIG1       -0.0581
     40 C          -4.4393   -3.3812    1.4854 C.ar    1  LIG1        0.0207
     41 C          -1.2990    1.7639    3.1565 C.3     1  LIG1        0.0790
     42 H          -4.3625    4.5993    1.1055 H       1  LIG1        0.2095
     43 H           3.1629    0.9345    0.3833 H       1  LIG1        0.1754
     44 H          -6.6524   -4.5792    3.2024 H       1  LIG1        0.1651
     45 H           5.5240    0.4879   -3.6635 H       1  LIG1        0.0653
     46 H          -3.0396   -1.1728    0.8351 H       1  LIG1        0.0646
     47 H           7.9819    0.5062   -3.2505 H       1  LIG1        0.0622
     48 H           0.0592   -3.2686   -1.3069 H       1  LIG1        0.0640
     49 H          -3.3020    1.7147   -0.4938 H       1  LIG1        0.0720
     50 H          -2.6939    2.5276   -1.9781 H       1  LIG1        0.0720
     51 H           7.1361    0.4637    0.9784 H       1  LIG1        0.0833
     52 H           1.6847    5.1739   -0.2220 H       1  LIG1        0.0655
     53 H          -1.1979   -5.3702   -0.8765 H       1  LIG1        0.0830
     54 H           9.8251    0.5962   -1.6988 H       1  LIG1        0.0278
     55 H           9.4997   -0.4928   -0.3396 H       1  LIG1        0.0278
     56 H           9.4871    1.2764   -0.1031 H       1  LIG1        0.0278
     57 H          -2.9157    4.7397   -0.6038 H       1  LIG1        0.0591
     58 H          -4.4415    3.9425   -1.0937 H       1  LIG1        0.0591
     59 H          -0.8519    4.2614    3.9418 H       1  LIG1        0.0655
     60 H           0.8473    7.0486    1.1670 H       1  LIG1        0.0619
     61 H          -0.4450    6.5780    3.2334 H       1  LIG1        0.0619
     62 H          -1.4476    0.6828    3.0776 H       1  LIG1        0.0660
     63 H          -2.1017    2.2524    2.5924 H       1  LIG1        0.0660
     64 H          -1.3507    2.0326    4.2160 H       1  LIG1        0.0660
@<TRIPOS>BOND
     1     1     4    2
     2     1     5    2
     3     1     8    1
     4     1    21    1
     5     2    18    1
     6     2    24    1
     7     3    19    1
     8     3    29    1
     9     6    32    1
    10     6    41    1
    11     7    36    1
    12     8    17    1
    13     9    17   ar
    14     9    20   ar
    15    10    19   ar
    16    10    20   ar
    17    11    21   ar
    18    11    31   ar
    19    12    30   ar
    20    12    34   ar
    21    13    15   ar
    22    13    40   ar
    23    14    16   ar
    24    14    40   ar
    25    15    16   ar
    26    17    18   ar
    27    18    19   ar
    28    20    22    1
    29    21    23   ar
    30    22    25   ar
    31    22    28   ar
    32    23    27   ar
    33    24    32   ar
    34    24    33   ar
    35    25    30   ar
    36    26    27   ar
    37    26    31   ar
    38    26    35    1
    39    28    34   ar
    40    29    36    1
    41    30    40    1
    42    32    37   ar
    43    33    38   ar
    44    37    39   ar
    45    38    39   ar
    46     7    42    1
    47     8    43    1
    48    15    44    1
    49    23    45    1
    50    25    46    1
    51    27    47    1
    52    28    48    1
    53    29    49    1
    54    29    50    1
    55    31    51    1
    56    33    52    1
    57    34    53    1
    58    35    54    1
    59    35    55    1
    60    35    56    1
    61    36    57    1
    62    36    58    1
    63    37    59    1
    64    38    60    1
    65    39    61    1
    66    41    62    1
    67    41    63    1
    68    41    64    1
@<TRIPOS>MOLECULE
6433095
 64 68 0 0 0
SMALL
GASTEIGER

@<TRIPOS>ATOM
      1 S           3.4344    0.3436   -1.7069 S.O2    1  LIG1        0.0908
      2 O           1.3865    2.7343    0.1552 O.3     1  LIG1       -0.4435
      3 O          -1.4389    2.7667   -0.3449 O.3     1  LIG1       -0.4715
      4 O           3.8699   -1.0172   -1.9619 O.2     1  LIG1       -0.1484
      5 O           4.4126    1.4121   -1.6263 O.2     1  LIG1       -0.1484
      6 O           2.2057    5.1812   -0.3610 O.3     1  LIG1       -0.4914
      7 O          -1.7666    3.5817   -3.1260 O.3     1  LIG1       -0.3917
      8 N           2.6600    0.3563   -0.1911 N.pl3   1  LIG1       -0.1950
      9 N           0.6156   -0.7695   -0.3474 N.ar    1  LIG1       -0.2073
     10 N          -1.4345    0.4347   -0.3570 N.ar    1  LIG1       -0.1899
     11 N           2.3103    1.9895   -3.5025 N.ar    1  LIG1       -0.2351
     12 N          -3.0541   -4.2961   -0.0313 N.ar    1  LIG1       -0.2552
     13 N          -2.0044   -6.7679   -1.0665 N.ar    1  LIG1       -0.5621
     14 N          -0.5508   -5.6113   -2.3571 N.ar    1  LIG1       -0.1535
     15 N          -1.3455   -7.5201   -1.9555 N.ar    1  LIG1       -0.3597
     16 N          -0.4768   -6.8761   -2.7423 N.ar    1  LIG1       -0.0878
     17 C           1.2476    0.4099   -0.1846 C.ar    1  LIG1        0.1882
     18 C           0.6154    1.6309   -0.0607 C.ar    1  LIG1        0.2307
     19 C          -0.7442    1.5845   -0.2612 C.ar    1  LIG1        0.2641
     20 C          -0.7278   -0.7089   -0.3439 C.ar    1  LIG1        0.1659
     21 C           2.2221    0.7483   -2.9787 C.ar    1  LIG1        0.1969
     22 C          -1.5048   -1.9525   -0.2518 C.ar    1  LIG1        0.0227
     23 C           1.3670   -0.2422   -3.4412 C.ar    1  LIG1       -0.0160
     24 C           0.9380    3.7277    1.0024 C.ar    1  LIG1        0.1702
     25 C          -1.0713   -3.1586   -0.8150 C.ar    1  LIG1       -0.0252
     26 C           0.5639    1.3536   -5.0628 C.ar    1  LIG1       -0.0322
     27 C           0.5070    0.0813   -4.4867 C.ar    1  LIG1       -0.0541
     28 C          -2.7350   -1.9622    0.4274 C.ar    1  LIG1       -0.0328
     29 C          -2.6764    2.6969   -1.0646 C.3     1  LIG1        0.1143
     30 C          -1.8709   -4.2981   -0.6994 C.ar    1  LIG1        0.0708
     31 C           1.4910    2.2574   -4.5437 C.ar    1  LIG1        0.0327
     32 C           1.3755    5.0302    0.7194 C.ar    1  LIG1        0.1621
     33 C           0.1343    3.4896    2.1251 C.ar    1  LIG1       -0.0157
     34 C          -3.4584   -3.1364    0.5185 C.ar    1  LIG1        0.0289
     35 C          -0.2973    1.7156   -6.2300 C.3     1  LIG1       -0.0383
     36 C          -2.4597    2.4715   -2.5620 C.3     1  LIG1        0.0783
     37 C           0.9115    6.0962    1.4937 C.ar    1  LIG1       -0.0163
     38 C          -0.3260    4.5597    2.8925 C.ar    1  LIG1       -0.0581
     39 C           0.0508    5.8611    2.5682 C.ar    1  LIG1       -0.0581
     40 C          -1.4856   -5.5546   -1.3423 C.ar    1  LIG1        0.0207
     41 C           3.1872    6.2036   -0.2313 C.3     1  LIG1        0.0790
     42 H          -1.1729    3.2339   -3.8109 H       1  LIG1        0.2095
     43 H           3.0732    1.1525    0.3004 H       1  LIG1        0.1754
     44 H          -1.4965   -8.5219   -2.0310 H       1  LIG1        0.1651
     45 H           1.3720   -1.2394   -3.0112 H       1  LIG1        0.0653
     46 H          -0.1239   -3.2078   -1.3483 H       1  LIG1        0.0646
     47 H          -0.1835   -0.6703   -4.8631 H       1  LIG1        0.0622
     48 H          -3.1265   -1.0627    0.8949 H       1  LIG1        0.0640
     49 H          -3.1572    3.6707   -0.9197 H       1  LIG1        0.0720
     50 H          -3.3434    1.9438   -0.6303 H       1  LIG1        0.0720
     51 H           1.6159    3.2477   -4.9809 H       1  LIG1        0.0833
     52 H          -0.1702    2.4849    2.4018 H       1  LIG1        0.0655
     53 H          -4.4061   -3.1769    1.0475 H       1  LIG1        0.0830
     54 H          -1.1161    0.9974   -6.3586 H       1  LIG1        0.0278
     55 H           0.2936    1.7280   -7.1518 H       1  LIG1        0.0278
     56 H          -0.7525    2.7013   -6.0847 H       1  LIG1        0.0278
     57 H          -1.8766    1.5663   -2.7561 H       1  LIG1        0.0591
     58 H          -3.4206    2.3835   -3.0757 H       1  LIG1        0.0591
     59 H           1.1822    7.1204    1.2599 H       1  LIG1        0.0655
     60 H          -0.9918    4.3794    3.7327 H       1  LIG1        0.0619
     61 H          -0.3283    6.6968    3.1512 H       1  LIG1        0.0619
     62 H           3.9283    6.0577   -1.0229 H       1  LIG1        0.0660
     63 H           3.7086    6.1423    0.7308 H       1  LIG1        0.0660
     64 H           2.7408    7.1923   -0.3724 H       1  LIG1        0.0660
@<TRIPOS>BOND
     1     1     4    2
     2     1     5    2
     3     1     8    1
     4     1    21    1
     5     2    18    1
     6     2    24    1
     7     3    19    1
     8     3    29    1
     9     6    32    1
    10     6    41    1
    11     7    36    1
    12     8    17    1
    13     9    17   ar
    14     9    20   ar
    15    10    19   ar
    16    10    20   ar
    17    11    21   ar
    18    11    31   ar
    19    12    30   ar
    20    12    34   ar
    21    13    15   ar
    22    13    40   ar
    23    14    16   ar
    24    14    40   ar
    25    15    16   ar
    26    17    18   ar
    27    18    19   ar
    28    20    22    1
    29    21    23   ar
    30    22    25   ar
    31    22    28   ar
    32    23    27   ar
    33    24    32   ar
    34    24    33   ar
    35    25    30   ar
    36    26    27   ar
    37    26    31   ar
    38    26    35    1
    39    28    34   ar
    40    29    36    1
    41    30    40    1
    42    32    37   ar
    43    33    38   ar
    44    37    39   ar
    45    38    39   ar
    46     7    42    1
    47     8    43    1
    48    15    44    1
    49    23    45    1
    50    25    46    1
    51    27    47    1
    52    28    48    1
    53    29    49    1
    54    29    50    1
    55    31    51    1
    56    33    52    1
    57    34    53    1
    58    35    54    1
    59    35    55    1
    60    35    56    1
    61    36    57    1
    62    36    58    1
    63    37    59    1
    64    38    60    1
    65    39    61    1
    66    41    62    1
    67    41    63    1
    68    41    64    1
@<TRIPOS>MOLECULE
6433095
 64 68 0 0 0
SMALL
GASTEIGER

@<TRIPOS>ATOM
      1 S           3.3580    0.4444   -1.8660 S.O2    1  LIG1        0.0908
      2 O           1.3473    2.7109    0.0790 O.3     1  LIG1       -0.4435
      3 O          -1.3298    2.6590    0.0536 O.3     1  LIG1       -0.4715
      4 O           4.6675    1.0249   -1.6211 O.2     1  LIG1       -0.1484
      5 O           2.3724    1.1412   -2.6663 O.2     1  LIG1       -0.1484
      6 O           3.2705    4.7356   -0.4082 O.3     1  LIG1       -0.4914
      7 O          -3.7320    1.2613   -1.5352 O.3     1  LIG1       -0.3917
      8 N           2.7374    0.1037   -0.3362 N.pl3   1  LIG1       -0.1950
      9 N           0.6755   -0.8996   -0.2279 N.ar    1  LIG1       -0.2073
     10 N          -1.3560    0.3167   -0.0434 N.ar    1  LIG1       -0.1899
     11 N           3.2206   -2.2298   -1.9396 N.ar    1  LIG1       -0.2351
     12 N          -2.9646   -4.4153    0.2427 N.ar    1  LIG1       -0.2552
     13 N          -5.8235   -4.2409   -0.2412 N.ar    1  LIG1       -0.5621
     14 N          -5.4789   -2.4443   -1.5718 N.ar    1  LIG1       -0.1535
     15 N          -6.9141   -3.8265   -0.8948 N.ar    1  LIG1       -0.3597
     16 N          -6.7579   -2.7688   -1.6974 N.ar    1  LIG1       -0.0878
     17 C           1.3367    0.2681   -0.1907 C.ar    1  LIG1        0.1882
     18 C           0.7265    1.4990   -0.0167 C.ar    1  LIG1        0.2307
     19 C          -0.6527    1.4563   -0.0057 C.ar    1  LIG1        0.2641
     20 C          -0.6616   -0.8248   -0.1486 C.ar    1  LIG1        0.1659
     21 C           3.6575   -1.1442   -2.6279 C.ar    1  LIG1        0.1969
     22 C          -1.4307   -2.0728   -0.0678 C.ar    1  LIG1        0.0227
     23 C           4.3666   -1.1909   -3.8190 C.ar    1  LIG1       -0.0160
     24 C           2.3847    2.8906    0.9668 C.ar    1  LIG1        0.1702
     25 C          -2.7771   -2.1216   -0.4650 C.ar    1  LIG1       -0.0252
     26 C           4.1946   -3.5927   -3.6911 C.ar    1  LIG1       -0.0322
     27 C           4.6358   -2.4449   -4.3570 C.ar    1  LIG1       -0.0541
     28 C          -0.8714   -3.2408    0.4622 C.ar    1  LIG1       -0.0328
     29 C          -2.7450    2.5733    0.2774 C.3     1  LIG1        0.1143
     30 C          -3.5087   -3.2931   -0.2961 C.ar    1  LIG1        0.0708
     31 C           3.4943   -3.4270   -2.4971 C.ar    1  LIG1        0.0327
     32 C           3.3355    3.8739    0.6561 C.ar    1  LIG1        0.1621
     33 C           2.5346    2.1375    2.1416 C.ar    1  LIG1       -0.0157
     34 C          -1.6665   -4.3646    0.6022 C.ar    1  LIG1        0.0289
     35 C           4.4657   -4.9636   -4.2249 C.3     1  LIG1       -0.0383
     36 C          -3.5404    2.5793   -1.0316 C.3     1  LIG1        0.0783
     37 C           4.4933    3.9862    1.4305 C.ar    1  LIG1       -0.0163
     38 C           3.6882    2.2678    2.9184 C.ar    1  LIG1       -0.0581
     39 C           4.6765    3.1771    2.5510 C.ar    1  LIG1       -0.0581
     40 C          -4.9183   -3.3466   -0.6885 C.ar    1  LIG1        0.0207
     41 C           1.9877    5.3225   -0.6221 C.3     1  LIG1        0.0790
     42 H          -4.2271    1.3360   -2.3685 H       1  LIG1        0.2095
     43 H           3.3305    0.5362    0.3651 H       1  LIG1        0.1754
     44 H          -7.8146   -4.2840   -0.7848 H       1  LIG1        0.1651
     45 H           4.7068   -0.2834   -4.3063 H       1  LIG1        0.0653
     46 H          -3.2518   -1.2369   -0.8856 H       1  LIG1        0.0646
     47 H           5.1921   -2.5215   -5.2881 H       1  LIG1        0.0622
     48 H           0.1649   -3.2665    0.7883 H       1  LIG1        0.0640
     49 H          -2.9953    3.4917    0.8205 H       1  LIG1        0.0720
     50 H          -3.0180    1.7388    0.9344 H       1  LIG1        0.0720
     51 H           3.1273   -4.2839   -1.9374 H       1  LIG1        0.0833
     52 H           1.7815    1.4191    2.4537 H       1  LIG1        0.0655
     53 H          -1.2695   -5.2796    1.0327 H       1  LIG1        0.0830
     54 H           5.0212   -4.9238   -5.1677 H       1  LIG1        0.0278
     55 H           3.5242   -5.4899   -4.4112 H       1  LIG1        0.0278
     56 H           5.0629   -5.5358   -3.5075 H       1  LIG1        0.0278
     57 H          -4.5364    2.9956   -0.8496 H       1  LIG1        0.0591
     58 H          -3.0348    3.1724   -1.7998 H       1  LIG1        0.0591
     59 H           5.2540    4.7138    1.1575 H       1  LIG1        0.0655
     60 H           3.8223    1.6503    3.8036 H       1  LIG1        0.0619
     61 H           5.5846    3.2684    3.1421 H       1  LIG1        0.0619
     62 H           2.1428    6.3182   -1.0496 H       1  LIG1        0.0660
     63 H           1.4173    5.4489    0.3058 H       1  LIG1        0.0660
     64 H           1.4211    4.7357   -1.3510 H       1  LIG1        0.0660
@<TRIPOS>BOND
     1     1     4    2
     2     1     5    2
     3     1     8    1
     4     1    21    1
     5     2    18    1
     6     2    24    1
     7     3    19    1
     8     3    29    1
     9     6    32    1
    10     6    41    1
    11     7    36    1
    12     8    17    1
    13     9    17   ar
    14     9    20   ar
    15    10    19   ar
    16    10    20   ar
    17    11    21   ar
    18    11    31   ar
    19    12    30   ar
    20    12    34   ar
    21    13    15   ar
    22    13    40   ar
    23    14    16   ar
    24    14    40   ar
    25    15    16   ar
    26    17    18   ar
    27    18    19   ar
    28    20    22    1
    29    21    23   ar
    30    22    25   ar
    31    22    28   ar
    32    23    27   ar
    33    24    32   ar
    34    24    33   ar
    35    25    30   ar
    36    26    27   ar
    37    26    31   ar
    38    26    35    1
    39    28    34   ar
    40    29    36    1
    41    30    40    1
    42    32    37   ar
    43    33    38   ar
    44    37    39   ar
    45    38    39   ar
    46     7    42    1
    47     8    43    1
    48    15    44    1
    49    23    45    1
    50    25    46    1
    51    27    47    1
    52    28    48    1
    53    29    49    1
    54    29    50    1
    55    31    51    1
    56    33    52    1
    57    34    53    1
    58    35    54    1
    59    35    55    1
    60    35    56    1
    61    36    57    1
    62    36    58    1
    63    37    59    1
    64    38    60    1
    65    39    61    1
    66    41    62    1
    67    41    63    1
    68    41    64    1
@<TRIPOS>MOLECULE
6433095
 64 68 0 0 0
SMALL
GASTEIGER

@<TRIPOS>ATOM
      1 S           3.2231    0.4164   -2.0415 S.O2    1  LIG1        0.0908
      2 O           1.4543    2.7232    0.0411 O.3     1  LIG1       -0.4435
      3 O          -1.2313    2.6941    0.1394 O.3     1  LIG1       -0.4715
      4 O           4.0514    1.6031   -2.0227 O.2     1  LIG1       -0.1484
      5 O           2.0415    0.3431   -2.8818 O.2     1  LIG1       -0.1484
      6 O           3.3853    4.7476   -0.3706 O.3     1  LIG1       -0.4914
      7 O          -4.8280    2.4485   -0.6239 O.3     1  LIG1       -0.3917
      8 N           2.8047    0.1261   -0.4158 N.pl3   1  LIG1       -0.1950
      9 N           0.7445   -0.8793   -0.2077 N.ar    1  LIG1       -0.2073
     10 N          -1.2836    0.3501    0.0033 N.ar    1  LIG1       -0.1899
     11 N           5.5791   -0.7891   -2.3838 N.ar    1  LIG1       -0.2351
     12 N          -2.8917   -4.4121    0.1111 N.ar    1  LIG1       -0.2552
     13 N          -5.7292   -4.2972   -0.4383 N.ar    1  LIG1       -0.5621
     14 N          -5.4880   -2.2438   -1.3551 N.ar    1  LIG1       -0.1535
     15 N          -6.8506   -3.8029   -0.9751 N.ar    1  LIG1       -0.3597
     16 N          -6.7543   -2.5910   -1.5325 N.ar    1  LIG1       -0.0878
     17 C           1.4106    0.2889   -0.1695 C.ar    1  LIG1        0.1882
     18 C           0.8102    1.5225    0.0007 C.ar    1  LIG1        0.2307
     19 C          -0.5664    1.4857    0.0506 C.ar    1  LIG1        0.2641
     20 C          -0.5932   -0.7974   -0.1084 C.ar    1  LIG1        0.1659
     21 C           4.2388   -1.0120   -2.4013 C.ar    1  LIG1        0.1969
     22 C          -1.3692   -2.0461   -0.0651 C.ar    1  LIG1        0.0227
     23 C           3.6394   -2.2233   -2.7071 C.ar    1  LIG1       -0.0160
     24 C           2.4177    2.9461    1.0015 C.ar    1  LIG1        0.1702
     25 C          -2.7293   -2.0700   -0.4189 C.ar    1  LIG1       -0.0252
     26 C           5.8626   -3.1074   -3.0281 C.ar    1  LIG1       -0.0322
     27 C           4.4755   -3.2898   -3.0232 C.ar    1  LIG1       -0.0541
     28 C          -0.7967   -3.2490    0.3653 C.ar    1  LIG1       -0.0328
     29 C          -2.6372    2.6000    0.3804 C.3     1  LIG1        0.1143
     30 C          -3.4544   -3.2552   -0.3222 C.ar    1  LIG1        0.0708
     31 C           6.3555   -1.8438   -2.7079 C.ar    1  LIG1        0.0327
     32 C           3.3764    3.9343    0.7321 C.ar    1  LIG1        0.1621
     33 C           2.4942    2.2272    2.2039 C.ar    1  LIG1       -0.0157
     34 C          -1.5859   -4.3836    0.4418 C.ar    1  LIG1        0.0289
     35 C           6.7979   -4.2137   -3.4035 C.3     1  LIG1       -0.0383
     36 C          -3.4340    2.4286   -0.9108 C.3     1  LIG1        0.0783
     37 C           4.4652    4.0989    1.5918 C.ar    1  LIG1       -0.0163
     38 C           3.5728    2.4170    3.0707 C.ar    1  LIG1       -0.0581
     39 C           4.5678    3.3384    2.7554 C.ar    1  LIG1       -0.0581
     40 C          -4.8723   -3.2877   -0.6913 C.ar    1  LIG1        0.0207
     41 C           2.1299    5.3589   -0.6617 C.3     1  LIG1        0.0790
     42 H          -5.2926    2.2456   -1.4548 H       1  LIG1        0.2095
     43 H           3.3829    0.7764    0.1192 H       1  LIG1        0.1754
     44 H          -7.7279   -4.3152   -0.9595 H       1  LIG1        0.1651
     45 H           2.5602   -2.3336   -2.7033 H       1  LIG1        0.0653
     46 H          -3.2191   -1.1611   -0.7609 H       1  LIG1        0.0646
     47 H           4.0418   -4.2551   -3.2725 H       1  LIG1        0.0622
     48 H           0.2477   -3.3001    0.6602 H       1  LIG1        0.0640
     49 H          -2.9383    3.5451    0.8488 H       1  LIG1        0.0720
     50 H          -2.8860    1.8303    1.1229 H       1  LIG1        0.0720
     51 H           7.4239   -1.6397   -2.7102 H       1  LIG1        0.0833
     52 H           1.7357    1.5011    2.4832 H       1  LIG1        0.0655
     53 H          -1.1766   -5.3284    0.7894 H       1  LIG1        0.0830
     54 H           6.2741   -5.1724   -3.4756 H       1  LIG1        0.0278
     55 H           7.5836   -4.3217   -2.6488 H       1  LIG1        0.0278
     56 H           7.2587   -4.0028   -4.3739 H       1  LIG1        0.0278
     57 H          -3.2044    3.2382   -1.6115 H       1  LIG1        0.0591
     58 H          -3.1929    1.4847   -1.4082 H       1  LIG1        0.0591
     59 H           5.2331    4.8305    1.3518 H       1  LIG1        0.0655
     60 H           3.6423    1.8382    3.9890 H       1  LIG1        0.0619
     61 H           5.4179    3.4760    3.4188 H       1  LIG1        0.0619
     62 H           2.3316    6.3342   -1.1153 H       1  LIG1        0.0660
     63 H           1.5231    5.5306    0.2352 H       1  LIG1        0.0660
     64 H           1.5794    4.7613   -1.3941 H       1  LIG1        0.0660
@<TRIPOS>BOND
     1     1     4    2
     2     1     5    2
     3     1     8    1
     4     1    21    1
     5     2    18    1
     6     2    24    1
     7     3    19    1
     8     3    29    1
     9     6    32    1
    10     6    41    1
    11     7    36    1
    12     8    17    1
    13     9    17   ar
    14     9    20   ar
    15    10    19   ar
    16    10    20   ar
    17    11    21   ar
    18    11    31   ar
    19    12    30   ar
    20    12    34   ar
    21    13    15   ar
    22    13    40   ar
    23    14    16   ar
    24    14    40   ar
    25    15    16   ar
    26    17    18   ar
    27    18    19   ar
    28    20    22    1
    29    21    23   ar
    30    22    25   ar
    31    22    28   ar
    32    23    27   ar
    33    24    32   ar
    34    24    33   ar
    35    25    30   ar
    36    26    27   ar
    37    26    31   ar
    38    26    35    1
    39    28    34   ar
    40    29    36    1
    41    30    40    1
    42    32    37   ar
    43    33    38   ar
    44    37    39   ar
    45    38    39   ar
    46     7    42    1
    47     8    43    1
    48    15    44    1
    49    23    45    1
    50    25    46    1
    51    27    47    1
    52    28    48    1
    53    29    49    1
    54    29    50    1
    55    31    51    1
    56    33    52    1
    57    34    53    1
    58    35    54    1
    59    35    55    1
    60    35    56    1
    61    36    57    1
    62    36    58    1
    63    37    59    1
    64    38    60    1
    65    39    61    1
    66    41    62    1
    67    41    63    1
    68    41    64    1
@<TRIPOS>MOLECULE
6433095
 64 68 0 0 0
SMALL
GASTEIGER

@<TRIPOS>ATOM
      1 S           3.4973   -0.0393    1.0269 S.O2    1  LIG1        0.0908
      2 O           1.2917    2.8680   -0.1611 O.3     1  LIG1       -0.4435
      3 O          -1.5195    2.7435   -0.3603 O.3     1  LIG1       -0.4715
      4 O           3.2845   -1.4633    1.1957 O.2     1  LIG1       -0.1484
      5 O           3.2189    0.8980    2.0944 O.2     1  LIG1       -0.1484
      6 O           1.8274    5.6054   -0.7389 O.3     1  LIG1       -0.4914
      7 O          -4.8654    3.7627   -1.3723 O.3     1  LIG1       -0.3917
      8 N           2.6778    0.5042   -0.3551 N.pl3   1  LIG1       -0.1950
      9 N           0.6772   -0.7010   -0.2161 N.ar    1  LIG1       -0.2073
     10 N          -1.4314    0.4053   -0.1649 N.ar    1  LIG1       -0.1899
     11 N           5.6948    1.4320    0.6714 N.ar    1  LIG1       -0.2351
     12 N          -2.6955   -4.4596    0.2022 N.ar    1  LIG1       -0.2552
     13 N          -5.2710   -4.5483    1.5130 N.ar    1  LIG1       -0.5621
     14 N          -5.0457   -2.3927    2.1584 N.ar    1  LIG1       -0.1535
     15 N          -6.2648   -4.1025    2.2897 N.ar    1  LIG1       -0.3597
     16 N          -6.1744   -2.8318    2.6951 N.ar    1  LIG1       -0.0878
     17 C           1.2603    0.5047   -0.2114 C.ar    1  LIG1        0.1882
     18 C           0.5815    1.7022   -0.1553 C.ar    1  LIG1        0.2307
     19 C          -0.7882    1.5852   -0.2124 C.ar    1  LIG1        0.2641
     20 C          -0.6639   -0.7002   -0.1437 C.ar    1  LIG1        0.1659
     21 C           5.1872    0.1880    0.4639 C.ar    1  LIG1        0.1969
     22 C          -1.3533   -1.9923   -0.0302 C.ar    1  LIG1        0.0227
     23 C           5.8357   -0.8326   -0.2133 C.ar    1  LIG1       -0.0160
     24 C           0.9896    3.8399    0.7701 C.ar    1  LIG1        0.1702
     25 C          -2.5957   -2.0913    0.6180 C.ar    1  LIG1       -0.0252
     26 C           7.6922    0.6863   -0.4856 C.ar    1  LIG1       -0.0322
     27 C           7.1124   -0.5687   -0.6992 C.ar    1  LIG1       -0.0541
     28 C          -0.8016   -3.1695   -0.5477 C.ar    1  LIG1       -0.0328
     29 C          -2.9059    2.5464   -0.6300 C.3     1  LIG1        0.1143
     30 C          -3.2290   -3.3267    0.7261 C.ar    1  LIG1        0.0708
     31 C           6.9515    1.6349    0.2180 C.ar    1  LIG1        0.0327
     32 C           1.2558    5.1749    0.4312 C.ar    1  LIG1        0.1621
     33 C           0.4468    3.5466    2.0310 C.ar    1  LIG1       -0.0157
     34 C          -1.5021   -4.3565   -0.4166 C.ar    1  LIG1        0.0289
     35 C           9.0829    0.9905   -0.9490 C.3     1  LIG1       -0.0383
     36 C          -3.4768    3.8811   -1.0964 C.3     1  LIG1        0.0783
     37 C           0.8677    6.1996    1.3007 C.ar    1  LIG1       -0.0163
     38 C           0.0774    4.5763    2.8986 C.ar    1  LIG1       -0.0581
     39 C           0.2741    5.9031    2.5275 C.ar    1  LIG1       -0.0581
     40 C          -4.5014   -3.4433    1.4442 C.ar    1  LIG1        0.0207
     41 C           2.9454    4.8407   -1.1825 C.3     1  LIG1        0.0790
     42 H          -5.1682    4.6373   -1.6721 H       1  LIG1        0.2095
     43 H           3.0195    1.4488   -0.5460 H       1  LIG1        0.1754
     44 H          -7.0466   -4.6932    2.5581 H       1  LIG1        0.1651
     45 H           5.3584   -1.7929   -0.3791 H       1  LIG1        0.0653
     46 H          -3.0551   -1.2044    1.0490 H       1  LIG1        0.0646
     47 H           7.6491   -1.3418   -1.2446 H       1  LIG1        0.0622
     48 H           0.1607   -3.1638   -1.0520 H       1  LIG1        0.0640
     49 H          -3.4240    2.2129    0.2772 H       1  LIG1        0.0720
     50 H          -3.0668    1.8013   -1.4198 H       1  LIG1        0.0720
     51 H           7.3650    2.6164    0.4403 H       1  LIG1        0.0833
     52 H           0.2896    2.5217    2.3566 H       1  LIG1        0.0655
     53 H          -1.1072   -5.2864   -0.8166 H       1  LIG1        0.0830
     54 H           9.3953    0.3025   -1.7419 H       1  LIG1        0.0278
     55 H           9.7857    0.9010   -0.1150 H       1  LIG1        0.0278
     56 H           9.1399    2.0049   -1.3576 H       1  LIG1        0.0278
     57 H          -3.3254    4.6517   -0.3328 H       1  LIG1        0.0591
     58 H          -2.9620    4.2129   -2.0052 H       1  LIG1        0.0591
     59 H           1.0393    7.2362    1.0222 H       1  LIG1        0.0655
     60 H          -0.3696    4.3397    3.8613 H       1  LIG1        0.0619
     61 H          -0.0228    6.7063    3.1970 H       1  LIG1        0.0619
     62 H           3.6170    5.5126   -1.7252 H       1  LIG1        0.0660
     63 H           2.6154    4.0693   -1.8850 H       1  LIG1        0.0660
     64 H           3.5156    4.3980   -0.3573 H       1  LIG1        0.0660
@<TRIPOS>BOND
     1     1     4    2
     2     1     5    2
     3     1     8    1
     4     1    21    1
     5     2    18    1
     6     2    24    1
     7     3    19    1
     8     3    29    1
     9     6    32    1
    10     6    41    1
    11     7    36    1
    12     8    17    1
    13     9    17   ar
    14     9    20   ar
    15    10    19   ar
    16    10    20   ar
    17    11    21   ar
    18    11    31   ar
    19    12    30   ar
    20    12    34   ar
    21    13    15   ar
    22    13    40   ar
    23    14    16   ar
    24    14    40   ar
    25    15    16   ar
    26    17    18   ar
    27    18    19   ar
    28    20    22    1
    29    21    23   ar
    30    22    25   ar
    31    22    28   ar
    32    23    27   ar
    33    24    32   ar
    34    24    33   ar
    35    25    30   ar
    36    26    27   ar
    37    26    31   ar
    38    26    35    1
    39    28    34   ar
    40    29    36    1
    41    30    40    1
    42    32    37   ar
    43    33    38   ar
    44    37    39   ar
    45    38    39   ar
    46     7    42    1
    47     8    43    1
    48    15    44    1
    49    23    45    1
    50    25    46    1
    51    27    47    1
    52    28    48    1
    53    29    49    1
    54    29    50    1
    55    31    51    1
    56    33    52    1
    57    34    53    1
    58    35    54    1
    59    35    55    1
    60    35    56    1
    61    36    57    1
    62    36    58    1
    63    37    59    1
    64    38    60    1
    65    39    61    1
    66    41    62    1
    67    41    63    1
    68    41    64    1
@<TRIPOS>MOLECULE
6433095
 64 68 0 0 0
SMALL
GASTEIGER

@<TRIPOS>ATOM
      1 S           3.4048   -0.0181   -1.6274 S.O2    1  LIG1        0.0908
      2 O           1.3009    2.8838    0.1042 O.3     1  LIG1       -0.4435
      3 O          -1.5407    2.8743   -0.2480 O.3     1  LIG1       -0.4715
      4 O           3.4493   -1.4636   -1.5503 O.2     1  LIG1       -0.1484
      5 O           4.6361    0.7449   -1.7368 O.2     1  LIG1       -0.1484
      6 O           2.0415    5.3580   -0.4082 O.3     1  LIG1       -0.4914
      7 O          -2.1859    4.2857   -2.7351 O.3     1  LIG1       -0.3917
      8 N           2.6213    0.5608   -0.2467 N.pl3   1  LIG1       -0.1950
      9 N           0.5911   -0.6257   -0.4357 N.ar    1  LIG1       -0.2073
     10 N          -1.4856    0.5448   -0.4239 N.ar    1  LIG1       -0.1899
     11 N           1.8407    1.6733   -2.9783 N.ar    1  LIG1       -0.2351
     12 N          -2.9866   -4.2352   -0.2009 N.ar    1  LIG1       -0.2552
     13 N          -1.9162   -6.6742   -1.2335 N.ar    1  LIG1       -0.5621
     14 N          -0.2755   -5.5505   -2.3096 N.ar    1  LIG1       -0.1535
     15 N          -1.1504   -7.4435   -2.0131 N.ar    1  LIG1       -0.3597
     16 N          -0.1694   -6.8208   -2.6746 N.ar    1  LIG1       -0.0878
     17 C           1.1975    0.5610   -0.2656 C.ar    1  LIG1        0.1882
     18 C           0.5415    1.7656   -0.0888 C.ar    1  LIG1        0.2307
     19 C          -0.8190    1.7032   -0.2713 C.ar    1  LIG1        0.2641
     20 C          -0.7509   -0.5849   -0.4541 C.ar    1  LIG1        0.1659
     21 C           2.3725    0.4219   -3.0278 C.ar    1  LIG1        0.1969
     22 C          -1.5012   -1.8500   -0.3946 C.ar    1  LIG1        0.0227
     23 C           2.0832   -0.5240   -3.9974 C.ar    1  LIG1       -0.0160
     24 C           0.9010    3.8433    1.0075 C.ar    1  LIG1        0.1702
     25 C          -1.0184   -3.0471   -0.9450 C.ar    1  LIG1       -0.0252
     26 C           0.6181    1.1154   -4.9956 C.ar    1  LIG1       -0.0322
     27 C           1.1876   -0.1625   -4.9984 C.ar    1  LIG1       -0.0541
     28 C          -2.7465   -1.8940    0.2546 C.ar    1  LIG1       -0.0328
     29 C          -2.8143    2.8339   -0.8985 C.3     1  LIG1        0.1143
     30 C          -1.7854   -4.2093   -0.8380 C.ar    1  LIG1        0.0708
     31 C           0.9777    1.9869   -3.9688 C.ar    1  LIG1        0.0327
     32 C           1.3076    5.1574    0.7337 C.ar    1  LIG1        0.1621
     33 C           0.2012    3.5608    2.1862 C.ar    1  LIG1       -0.0157
     34 C          -3.4360   -3.0879    0.3327 C.ar    1  LIG1        0.0289
     35 C          -0.3868    1.5187   -6.0287 C.3     1  LIG1       -0.0383
     36 C          -2.6711    2.9833   -2.4135 C.3     1  LIG1        0.0783
     37 C           0.9180    6.1949    1.5834 C.ar    1  LIG1       -0.0163
     38 C          -0.1739    4.6004    3.0382 C.ar    1  LIG1       -0.0581
     39 C           0.1719    5.9154    2.7301 C.ar    1  LIG1       -0.0581
     40 C          -1.3396   -5.4712   -1.4350 C.ar    1  LIG1        0.0207
     41 C           3.0925    6.3090   -0.2730 C.3     1  LIG1        0.0790
     42 H          -2.1307    4.3496   -3.7025 H       1  LIG1        0.2095
     43 H           3.0160    1.4750   -0.0189 H       1  LIG1        0.1754
     44 H          -1.3052   -8.4441   -2.1014 H       1  LIG1        0.1651
     45 H           2.5245   -1.5148   -3.9699 H       1  LIG1        0.0653
     46 H          -0.0560   -3.0677   -1.4514 H       1  LIG1        0.0646
     47 H           0.9317   -0.8836   -5.7715 H       1  LIG1        0.0622
     48 H          -3.1706   -1.0056    0.7149 H       1  LIG1        0.0640
     49 H          -3.3762    3.6900   -0.5082 H       1  LIG1        0.0720
     50 H          -3.3857    1.9370   -0.6343 H       1  LIG1        0.0720
     51 H           0.5578    2.9890   -3.9049 H       1  LIG1        0.0833
     52 H          -0.0732    2.5442    2.4504 H       1  LIG1        0.0655
     53 H          -4.3930   -3.1534    0.8426 H       1  LIG1        0.0830
     54 H          -0.3777    0.8315   -6.8815 H       1  LIG1        0.0278
     55 H          -0.1656    2.5201   -6.4115 H       1  LIG1        0.0278
     56 H          -1.3923    1.5138   -5.5958 H       1  LIG1        0.0278
     57 H          -1.9705    2.2519   -2.8252 H       1  LIG1        0.0591
     58 H          -3.6455    2.8611   -2.8954 H       1  LIG1        0.0591
     59 H           1.1670    7.2266    1.3577 H       1  LIG1        0.0655
     60 H          -0.7455    4.3854    3.9376 H       1  LIG1        0.0619
     61 H          -0.1399    6.7259    3.3841 H       1  LIG1        0.0619
     62 H           3.8097    6.1307   -1.0801 H       1  LIG1        0.0660
     63 H           3.6269    6.1976    0.6775 H       1  LIG1        0.0660
     64 H           2.7055    7.3260   -0.3855 H       1  LIG1        0.0660
@<TRIPOS>BOND
     1     1     4    2
     2     1     5    2
     3     1     8    1
     4     1    21    1
     5     2    18    1
     6     2    24    1
     7     3    19    1
     8     3    29    1
     9     6    32    1
    10     6    41    1
    11     7    36    1
    12     8    17    1
    13     9    17   ar
    14     9    20   ar
    15    10    19   ar
    16    10    20   ar
    17    11    21   ar
    18    11    31   ar
    19    12    30   ar
    20    12    34   ar
    21    13    15   ar
    22    13    40   ar
    23    14    16   ar
    24    14    40   ar
    25    15    16   ar
    26    17    18   ar
    27    18    19   ar
    28    20    22    1
    29    21    23   ar
    30    22    25   ar
    31    22    28   ar
    32    23    27   ar
    33    24    32   ar
    34    24    33   ar
    35    25    30   ar
    36    26    27   ar
    37    26    31   ar
    38    26    35    1
    39    28    34   ar
    40    29    36    1
    41    30    40    1
    42    32    37   ar
    43    33    38   ar
    44    37    39   ar
    45    38    39   ar
    46     7    42    1
    47     8    43    1
    48    15    44    1
    49    23    45    1
    50    25    46    1
    51    27    47    1
    52    28    48    1
    53    29    49    1
    54    29    50    1
    55    31    51    1
    56    33    52    1
    57    34    53    1
    58    35    54    1
    59    35    55    1
    60    35    56    1
    61    36    57    1
    62    36    58    1
    63    37    59    1
    64    38    60    1
    65    39    61    1
    66    41    62    1
    67    41    63    1
    68    41    64    1
@<TRIPOS>MOLECULE
6433095
 64 68 0 0 0
SMALL
GASTEIGER

@<TRIPOS>ATOM
      1 S           3.3165    0.3689   -1.9775 S.O2    1  LIG1        0.0908
      2 O           1.3674    2.7608    0.1376 O.3     1  LIG1       -0.4435
      3 O          -1.2814    2.7240   -0.0647 O.3     1  LIG1       -0.4715
      4 O           2.4597    1.3414   -2.6256 O.2     1  LIG1       -0.1484
      5 O           3.5280   -0.9493   -2.5384 O.2     1  LIG1       -0.1484
      6 O           3.2769    4.8293   -0.3016 O.3     1  LIG1       -0.4914
      7 O          -4.9238    2.5343   -0.5802 O.3     1  LIG1       -0.3917
      8 N           2.7876    0.1768   -0.3670 N.pl3   1  LIG1       -0.1950
      9 N           0.7070   -0.8417   -0.3086 N.ar    1  LIG1       -0.2073
     10 N          -1.3319    0.3816   -0.2059 N.ar    1  LIG1       -0.1899
     11 N           5.1386    2.3065   -2.3233 N.ar    1  LIG1       -0.2351
     12 N          -2.9561   -4.3305    0.2692 N.ar    1  LIG1       -0.2552
     13 N          -5.8132   -4.1645   -0.2006 N.ar    1  LIG1       -0.5621
     14 N          -5.4672   -2.4561   -1.6416 N.ar    1  LIG1       -0.1535
     15 N          -6.9080   -3.7859   -0.8724 N.ar    1  LIG1       -0.3597
     16 N          -6.7490   -2.7780   -1.7383 N.ar    1  LIG1       -0.0878
     17 C           1.3739    0.3230   -0.2153 C.ar    1  LIG1        0.1882
     18 C           0.7632    1.5471   -0.0288 C.ar    1  LIG1        0.2307
     19 C          -0.6162    1.5125   -0.0912 C.ar    1  LIG1        0.2641
     20 C          -0.6310   -0.7646   -0.2754 C.ar    1  LIG1        0.1659
     21 C           4.9504    1.1003   -1.7377 C.ar    1  LIG1        0.1969
     22 C          -1.4102   -2.0113   -0.1616 C.ar    1  LIG1        0.0227
     23 C           5.9159    0.4125   -1.0177 C.ar    1  LIG1       -0.0160
     24 C           2.4211    2.9143    1.0080 C.ar    1  LIG1        0.1702
     25 C          -2.7554   -2.0789   -0.5617 C.ar    1  LIG1       -0.0252
     26 C           7.4282    2.2265   -1.5297 C.ar    1  LIG1       -0.0322
     27 C           7.1786    0.9959   -0.9125 C.ar    1  LIG1       -0.0541
     28 C          -0.8586   -3.1543    0.4308 C.ar    1  LIG1       -0.0328
     29 C          -2.6670    2.6516    0.2650 C.3     1  LIG1        0.1143
     30 C          -3.4948   -3.2376   -0.3301 C.ar    1  LIG1        0.0708
     31 C           6.3761    2.8383   -2.2089 C.ar    1  LIG1        0.0327
     32 C           3.3616    3.9110    0.7111 C.ar    1  LIG1        0.1621
     33 C           2.6054    2.1076    2.1431 C.ar    1  LIG1       -0.0157
     34 C          -1.6589   -4.2670    0.6269 C.ar    1  LIG1        0.0289
     35 C           8.7887    2.8545   -1.5149 C.3     1  LIG1       -0.0383
     36 C          -3.5542    2.4204   -0.9569 C.3     1  LIG1        0.0783
     37 C           4.5448    3.9808    1.4519 C.ar    1  LIG1       -0.0163
     38 C           3.7882    2.1945    2.8802 C.ar    1  LIG1       -0.0581
     39 C           4.7678    3.1159    2.5239 C.ar    1  LIG1       -0.0581
     40 C          -4.9066   -3.3077   -0.7098 C.ar    1  LIG1        0.0207
     41 C           1.9699    5.3281   -0.5823 C.3     1  LIG1        0.0790
     42 H          -5.4522    2.3129   -1.3661 H       1  LIG1        0.2095
     43 H           3.3265    0.7942    0.2318 H       1  LIG1        0.1754
     44 H          -7.8097   -4.2296   -0.7284 H       1  LIG1        0.1651
     45 H           5.7110   -0.5567   -0.5750 H       1  LIG1        0.0653
     46 H          -3.2293   -1.2174   -1.0287 H       1  LIG1        0.0646
     47 H           7.9679    0.4783   -0.3738 H       1  LIG1        0.0622
     48 H           0.1740   -3.1698    0.7665 H       1  LIG1        0.0640
     49 H          -2.9310    3.6216    0.7011 H       1  LIG1        0.0720
     50 H          -2.8687    1.9216    1.0605 H       1  LIG1        0.0720
     51 H           6.5094    3.7937   -2.7082 H       1  LIG1        0.0833
     52 H           1.8599    1.3785    2.4460 H       1  LIG1        0.0655
     53 H          -1.2668   -5.1606    1.1063 H       1  LIG1        0.0830
     54 H           9.4861    2.2864   -0.8869 H       1  LIG1        0.0278
     55 H           8.7385    3.8722   -1.1222 H       1  LIG1        0.0278
     56 H           9.1991    2.8798   -2.5294 H       1  LIG1        0.0278
     57 H          -3.3374    3.1602   -1.7352 H       1  LIG1        0.0591
     58 H          -3.3941    1.4296   -1.3875 H       1  LIG1        0.0591
     59 H           5.2956    4.7252    1.1928 H       1  LIG1        0.0655
     60 H           3.9497    1.5338    3.7327 H       1  LIG1        0.0619
     61 H           5.6929    3.1797    3.0868 H       1  LIG1        0.0619
     62 H           2.0789    6.3219   -1.0225 H       1  LIG1        0.0660
     63 H           1.3583    5.4333    0.3205 H       1  LIG1        0.0660
     64 H           1.4713    4.6953   -1.3258 H       1  LIG1        0.0660
@<TRIPOS>BOND
     1     1     4    2
     2     1     5    2
     3     1     8    1
     4     1    21    1
     5     2    18    1
     6     2    24    1
     7     3    19    1
     8     3    29    1
     9     6    32    1
    10     6    41    1
    11     7    36    1
    12     8    17    1
    13     9    17   ar
    14     9    20   ar
    15    10    19   ar
    16    10    20   ar
    17    11    21   ar
    18    11    31   ar
    19    12    30   ar
    20    12    34   ar
    21    13    15   ar
    22    13    40   ar
    23    14    16   ar
    24    14    40   ar
    25    15    16   ar
    26    17    18   ar
    27    18    19   ar
    28    20    22    1
    29    21    23   ar
    30    22    25   ar
    31    22    28   ar
    32    23    27   ar
    33    24    32   ar
    34    24    33   ar
    35    25    30   ar
    36    26    27   ar
    37    26    31   ar
    38    26    35    1
    39    28    34   ar
    40    29    36    1
    41    30    40    1
    42    32    37   ar
    43    33    38   ar
    44    37    39   ar
    45    38    39   ar
    46     7    42    1
    47     8    43    1
    48    15    44    1
    49    23    45    1
    50    25    46    1
    51    27    47    1
    52    28    48    1
    53    29    49    1
    54    29    50    1
    55    31    51    1
    56    33    52    1
    57    34    53    1
    58    35    54    1
    59    35    55    1
    60    35    56    1
    61    36    57    1
    62    36    58    1
    63    37    59    1
    64    38    60    1
    65    39    61    1
    66    41    62    1
    67    41    63    1
    68    41    64    1
@<TRIPOS>MOLECULE
6433095
 64 68 0 0 0
SMALL
GASTEIGER

@<TRIPOS>ATOM
      1 S           3.1906    0.2530   -2.0618 S.O2    1  LIG1        0.0908
      2 O           1.4106    2.7987    0.1421 O.3     1  LIG1       -0.4435
      3 O          -1.2668    2.7605    0.3358 O.3     1  LIG1       -0.4715
      4 O           2.3405    1.2034   -2.7510 O.2     1  LIG1       -0.1484
      5 O           3.3233   -1.1151   -2.5138 O.2     1  LIG1       -0.1484
      6 O           3.4585    4.7163   -0.3769 O.3     1  LIG1       -0.4914
      7 O          -4.8198    2.5087   -0.6294 O.3     1  LIG1       -0.3917
      8 N           2.7539    0.2386   -0.4166 N.pl3   1  LIG1       -0.1950
      9 N           0.6785   -0.7879   -0.3069 N.ar    1  LIG1       -0.2073
     10 N          -1.3237    0.4281    0.0941 N.ar    1  LIG1       -0.1899
     11 N           4.9836    2.2197   -2.3432 N.ar    1  LIG1       -0.2351
     12 N          -3.0538   -4.2673   -0.2556 N.ar    1  LIG1       -0.2552
     13 N          -2.1686   -6.5585   -1.7183 N.ar    1  LIG1       -0.5621
     14 N          -0.1014   -5.6737   -1.9543 N.ar    1  LIG1       -0.1535
     15 N          -1.3007   -7.3592   -2.3436 N.ar    1  LIG1       -0.3597
     16 N          -0.0634   -6.8800   -2.5023 N.ar    1  LIG1       -0.0878
     17 C           1.3538    0.3711   -0.1986 C.ar    1  LIG1        0.1882
     18 C           0.7669    1.5970    0.0636 C.ar    1  LIG1        0.2307
     19 C          -0.6051    1.5600    0.1613 C.ar    1  LIG1        0.2641
     20 C          -0.6508   -0.7131   -0.1370 C.ar    1  LIG1        0.1659
     21 C           4.8517    0.9354   -1.9320 C.ar    1  LIG1        0.1969
     22 C          -1.4527   -1.9486   -0.1758 C.ar    1  LIG1        0.0227
     23 C           5.8570    0.1856   -1.3386 C.ar    1  LIG1       -0.0160
     24 C           2.4389    2.9692    1.0425 C.ar    1  LIG1        0.1702
     25 C          -0.9910   -3.1276   -0.7824 C.ar    1  LIG1       -0.0252
     26 C           7.2802    2.1221   -1.5769 C.ar    1  LIG1       -0.0322
     27 C           7.0943    0.7990   -1.1618 C.ar    1  LIG1       -0.0541
     28 C          -2.7374   -1.9797    0.3923 C.ar    1  LIG1       -0.0328
     29 C          -2.6841    2.6556    0.4930 C.3     1  LIG1        0.1143
     30 C          -1.8143   -4.2542   -0.8144 C.ar    1  LIG1        0.0708
     31 C           6.2010    2.7758   -2.1687 C.ar    1  LIG1        0.0327
     32 C           3.4393    3.9000    0.7228 C.ar    1  LIG1        0.1621
     33 C           2.5363    2.2367    2.2352 C.ar    1  LIG1       -0.0157
     34 C          -3.4846   -3.1398    0.3338 C.ar    1  LIG1        0.0289
     35 C           8.6047    2.8066   -1.4422 C.3     1  LIG1       -0.0383
     36 C          -3.4117    2.5084   -0.8425 C.3     1  LIG1        0.0783
     37 C           4.5769    3.9959    1.5294 C.ar    1  LIG1       -0.0163
     38 C           3.6673    2.3572    3.0453 C.ar    1  LIG1       -0.0581
     39 C           4.6949    3.2241    2.6839 C.ar    1  LIG1       -0.0581
     40 C          -1.3836   -5.4872   -1.4797 C.ar    1  LIG1        0.0207
     41 C           2.2091    5.3163   -0.7120 C.3     1  LIG1        0.0790
     42 H          -5.2353    2.3804   -1.5002 H       1  LIG1        0.2095
     43 H           3.3071    0.9360    0.0772 H       1  LIG1        0.1754
     44 H          -1.5656   -8.2794   -2.6843 H       1  LIG1        0.1651
     45 H           5.6822   -0.8337   -1.0118 H       1  LIG1        0.0653
     46 H          -0.0062   -3.1545   -1.2451 H       1  LIG1        0.0646
     47 H           7.9080    0.2449   -0.6987 H       1  LIG1        0.0622
     48 H          -3.1586   -1.1047    0.8805 H       1  LIG1        0.0640
     49 H          -3.0159    3.5888    0.9644 H       1  LIG1        0.0720
     50 H          -2.9664    1.8690    1.2052 H       1  LIG1        0.0720
     51 H           6.2892    3.7994   -2.5270 H       1  LIG1        0.0833
     52 H           1.7518    1.5509    2.5447 H       1  LIG1        0.0655
     53 H          -4.4787   -3.1911    0.7686 H       1  LIG1        0.0830
     54 H           9.2533    2.2819   -0.7329 H       1  LIG1        0.0278
     55 H           8.4735    3.8285   -1.0709 H       1  LIG1        0.0278
     56 H           9.1105    2.8406   -2.4122 H       1  LIG1        0.0278
     57 H          -3.1531    3.3369   -1.5102 H       1  LIG1        0.0591
     58 H          -3.1392    1.5793   -1.3513 H       1  LIG1        0.0591
     59 H           5.3704    4.6883    1.2578 H       1  LIG1        0.0655
     60 H           3.7492    1.7692    3.9567 H       1  LIG1        0.0619
     61 H           5.5811    3.3131    3.3074 H       1  LIG1        0.0619
     62 H           2.4200    6.2765   -1.1932 H       1  LIG1        0.0660
     63 H           1.5891    5.5199    0.1688 H       1  LIG1        0.0660
     64 H           1.6722    4.6961   -1.4355 H       1  LIG1        0.0660
@<TRIPOS>BOND
     1     1     4    2
     2     1     5    2
     3     1     8    1
     4     1    21    1
     5     2    18    1
     6     2    24    1
     7     3    19    1
     8     3    29    1
     9     6    32    1
    10     6    41    1
    11     7    36    1
    12     8    17    1
    13     9    17   ar
    14     9    20   ar
    15    10    19   ar
    16    10    20   ar
    17    11    21   ar
    18    11    31   ar
    19    12    30   ar
    20    12    34   ar
    21    13    15   ar
    22    13    40   ar
    23    14    16   ar
    24    14    40   ar
    25    15    16   ar
    26    17    18   ar
    27    18    19   ar
    28    20    22    1
    29    21    23   ar
    30    22    25   ar
    31    22    28   ar
    32    23    27   ar
    33    24    32   ar
    34    24    33   ar
    35    25    30   ar
    36    26    27   ar
    37    26    31   ar
    38    26    35    1
    39    28    34   ar
    40    29    36    1
    41    30    40    1
    42    32    37   ar
    43    33    38   ar
    44    37    39   ar
    45    38    39   ar
    46     7    42    1
    47     8    43    1
    48    15    44    1
    49    23    45    1
    50    25    46    1
    51    27    47    1
    52    28    48    1
    53    29    49    1
    54    29    50    1
    55    31    51    1
    56    33    52    1
    57    34    53    1
    58    35    54    1
    59    35    55    1
    60    35    56    1
    61    36    57    1
    62    36    58    1
    63    37    59    1
    64    38    60    1
    65    39    61    1
    66    41    62    1
    67    41    63    1
    68    41    64    1
@<TRIPOS>MOLECULE
6433095
 64 68 0 0 0
SMALL
GASTEIGER

@<TRIPOS>ATOM
      1 S           3.1690    0.2552   -2.1188 S.O2    1  LIG1        0.0908
      2 O           1.4667    2.7851    0.1201 O.3     1  LIG1       -0.4435
      3 O          -1.2238    2.7605    0.2642 O.3     1  LIG1       -0.4715
      4 O           3.3651    1.6492   -2.4555 O.2     1  LIG1       -0.1484
      5 O           2.2377   -0.5672   -2.8622 O.2     1  LIG1       -0.1484
      6 O           3.2358    4.6888   -0.3238 O.3     1  LIG1       -0.4914
      7 O          -4.7886    2.4887   -0.6494 O.3     1  LIG1       -0.3917
      8 N           2.7975    0.2008   -0.4582 N.pl3   1  LIG1       -0.1950
      9 N           0.7249   -0.7980   -0.2687 N.ar    1  LIG1       -0.2073
     10 N          -1.2854    0.4276    0.0308 N.ar    1  LIG1       -0.1899
     11 N           5.8372    0.2136   -2.1079 N.ar    1  LIG1       -0.2351
     12 N          -2.9343   -4.3307   -0.2896 N.ar    1  LIG1       -0.2552
     13 N          -1.6213   -6.8636   -0.6142 N.ar    1  LIG1       -0.5621
     14 N           0.4058   -5.8924   -0.3679 N.ar    1  LIG1       -0.1535
     15 N          -0.5987   -7.7242   -0.6275 N.ar    1  LIG1       -0.3597
     16 N           0.6209   -7.1951   -0.4828 N.ar    1  LIG1       -0.0878
     17 C           1.4019    0.3625   -0.2037 C.ar    1  LIG1        0.1882
     18 C           0.8139    1.5913    0.0298 C.ar    1  LIG1        0.2307
     19 C          -0.5614    1.5578    0.1086 C.ar    1  LIG1        0.2641
     20 C          -0.6096   -0.7192   -0.1496 C.ar    1  LIG1        0.1659
     21 C           4.7497   -0.5952   -2.1199 C.ar    1  LIG1        0.1969
     22 C          -1.3999   -1.9630   -0.2056 C.ar    1  LIG1        0.0227
     23 C           4.7839   -1.9799   -2.1287 C.ar    1  LIG1       -0.0160
     24 C           2.4534    2.9470    1.0733 C.ar    1  LIG1        0.1702
     25 C          -0.7917   -3.2243   -0.3143 C.ar    1  LIG1       -0.0252
     26 C           7.1910   -1.8001   -2.1347 C.ar    1  LIG1       -0.0322
     27 C           6.0364   -2.5893   -2.1310 C.ar    1  LIG1       -0.0541
     28 C          -2.8020   -1.9348   -0.1433 C.ar    1  LIG1       -0.0328
     29 C          -2.6383    2.6570    0.4449 C.3     1  LIG1        0.1143
     30 C          -1.5782   -4.3753   -0.3514 C.ar    1  LIG1        0.0708
     31 C           7.0338   -0.4151   -2.1306 C.ar    1  LIG1        0.0327
     32 C           3.4016    3.9508    0.8192 C.ar    1  LIG1        0.1621
     33 C           2.5422    2.1894    2.2482 C.ar    1  LIG1       -0.0157
     34 C          -3.5126   -3.1205   -0.1891 C.ar    1  LIG1        0.0289
     35 C           8.5561   -2.4118   -2.1849 C.3     1  LIG1       -0.0383
     36 C          -3.3841    2.5302   -0.8822 C.3     1  LIG1        0.0783
     37 C           4.4860    4.1162    1.6845 C.ar    1  LIG1       -0.0163
     38 C           3.6208    2.3709    3.1152 C.ar    1  LIG1       -0.0581
     39 C           4.5980    3.3212    2.8261 C.ar    1  LIG1       -0.0581
     40 C          -0.9597   -5.7002   -0.4480 C.ar    1  LIG1        0.0207
     41 C           3.5994    6.0604   -0.2082 C.3     1  LIG1        0.0790
     42 H          -5.2164    2.4293   -1.5214 H       1  LIG1        0.2095
     43 H           3.3377    0.9689   -0.0538 H       1  LIG1        0.1754
     44 H          -0.7378   -8.7242   -0.7418 H       1  LIG1        0.1651
     45 H           3.8732   -2.5706   -2.1246 H       1  LIG1        0.0653
     46 H           0.2917   -3.3036   -0.3698 H       1  LIG1        0.0646
     47 H           6.1049   -3.6749   -2.1355 H       1  LIG1        0.0622
     48 H          -3.3448   -0.9970   -0.0587 H       1  LIG1        0.0640
     49 H          -2.9609    3.5848    0.9331 H       1  LIG1        0.0720
     50 H          -2.9131    1.8621    1.1507 H       1  LIG1        0.0720
     51 H           7.8961    0.2477   -2.1505 H       1  LIG1        0.0833
     52 H           1.7922    1.4472    2.5062 H       1  LIG1        0.0655
     53 H          -4.5981   -3.1259   -0.1422 H       1  LIG1        0.0830
     54 H           8.5178   -3.4893   -1.9936 H       1  LIG1        0.0278
     55 H           9.2042   -1.9650   -1.4239 H       1  LIG1        0.0278
     56 H           9.0017   -2.2556   -3.1725 H       1  LIG1        0.0278
     57 H          -3.1559    3.3843   -1.5285 H       1  LIG1        0.0591
     58 H          -3.0966    1.6238   -1.4229 H       1  LIG1        0.0591
     59 H           5.2651    4.8425    1.4749 H       1  LIG1        0.0655
     60 H           3.7034    1.7645    4.0144 H       1  LIG1        0.0619
     61 H           5.4481    3.4474    3.4925 H       1  LIG1        0.0619
     62 H           3.1171    6.6045   -1.0261 H       1  LIG1        0.0660
     63 H           4.6814    6.1825   -0.3159 H       1  LIG1        0.0660
     64 H           3.2493    6.4978    0.7339 H       1  LIG1        0.0660
@<TRIPOS>BOND
     1     1     4    2
     2     1     5    2
     3     1     8    1
     4     1    21    1
     5     2    18    1
     6     2    24    1
     7     3    19    1
     8     3    29    1
     9     6    32    1
    10     6    41    1
    11     7    36    1
    12     8    17    1
    13     9    17   ar
    14     9    20   ar
    15    10    19   ar
    16    10    20   ar
    17    11    21   ar
    18    11    31   ar
    19    12    30   ar
    20    12    34   ar
    21    13    15   ar
    22    13    40   ar
    23    14    16   ar
    24    14    40   ar
    25    15    16   ar
    26    17    18   ar
    27    18    19   ar
    28    20    22    1
    29    21    23   ar
    30    22    25   ar
    31    22    28   ar
    32    23    27   ar
    33    24    32   ar
    34    24    33   ar
    35    25    30   ar
    36    26    27   ar
    37    26    31   ar
    38    26    35    1
    39    28    34   ar
    40    29    36    1
    41    30    40    1
    42    32    37   ar
    43    33    38   ar
    44    37    39   ar
    45    38    39   ar
    46     7    42    1
    47     8    43    1
    48    15    44    1
    49    23    45    1
    50    25    46    1
    51    27    47    1
    52    28    48    1
    53    29    49    1
    54    29    50    1
    55    31    51    1
    56    33    52    1
    57    34    53    1
    58    35    54    1
    59    35    55    1
    60    35    56    1
    61    36    57    1
    62    36    58    1
    63    37    59    1
    64    38    60    1
    65    39    61    1
    66    41    62    1
    67    41    63    1
    68    41    64    1
@<TRIPOS>MOLECULE
6433095
 64 68 0 0 0
SMALL
GASTEIGER

@<TRIPOS>ATOM
      1 S           3.4234    0.6984   -1.9844 S.O2    1  LIG1        0.0908
      2 O           1.5294    2.7237    0.1500 O.3     1  LIG1       -0.4435
      3 O          -1.1241    2.7624    0.3839 O.3     1  LIG1       -0.4715
      4 O           4.7600    0.1513   -2.1118 O.2     1  LIG1       -0.1484
      5 O           3.2122    2.1293   -2.0216 O.2     1  LIG1       -0.1484
      6 O           3.4151    4.8817   -0.1035 O.3     1  LIG1       -0.4914
      7 O          -4.4994    4.0855    0.8013 O.3     1  LIG1       -0.3917
      8 N           2.7695    0.0597   -0.5589 N.pl3   1  LIG1       -0.1950
      9 N           0.6857   -0.8190   -0.4031 N.ar    1  LIG1       -0.2073
     10 N          -1.2780    0.4436    0.0310 N.ar    1  LIG1       -0.1899
     11 N           2.7012   -1.2842   -3.6162 N.ar    1  LIG1       -0.2351
     12 N          -3.0154   -4.2918   -0.3255 N.ar    1  LIG1       -0.2552
     13 N          -1.7178   -6.8463   -0.6236 N.ar    1  LIG1       -0.5621
     14 N           0.3114   -5.8828   -0.3653 N.ar    1  LIG1       -0.1535
     15 N          -0.6989   -7.7128   -0.6150 N.ar    1  LIG1       -0.3597
     16 N           0.5216   -7.1871   -0.4660 N.ar    1  LIG1       -0.0878
     17 C           1.3992    0.3160   -0.3041 C.ar    1  LIG1        0.1882
     18 C           0.8617    1.5445    0.0206 C.ar    1  LIG1        0.2307
     19 C          -0.5129    1.5458    0.1378 C.ar    1  LIG1        0.2641
     20 C          -0.6412   -0.7119   -0.2139 C.ar    1  LIG1        0.1659
     21 C           2.3983   -0.0036   -3.2804 C.ar    1  LIG1        0.1969
     22 C          -1.4532   -1.9416   -0.2620 C.ar    1  LIG1        0.0227
     23 C           1.4454    0.7831   -3.9105 C.ar    1  LIG1       -0.0160
     24 C           2.5546    2.8579    1.0599 C.ar    1  LIG1        0.1702
     25 C          -0.8614   -3.2123   -0.3556 C.ar    1  LIG1       -0.0252
     26 C           1.0599   -1.0792   -5.3915 C.ar    1  LIG1       -0.0322
     27 C           0.7611    0.2242   -4.9830 C.ar    1  LIG1       -0.0541
     28 C          -2.8538   -1.8946   -0.1989 C.ar    1  LIG1       -0.0328
     29 C          -2.5485    2.6956    0.4641 C.3     1  LIG1        0.1143
     30 C          -1.6606   -4.3546   -0.3814 C.ar    1  LIG1        0.0708
     31 C           2.0347   -1.7800   -4.6815 C.ar    1  LIG1        0.0327
     32 C           3.4575    3.9201    0.8735 C.ar    1  LIG1        0.1621
     33 C           2.7234    2.0043    2.1607 C.ar    1  LIG1       -0.0157
     34 C          -3.5785   -3.0729   -0.2345 C.ar    1  LIG1        0.0289
     35 C           0.4218   -1.6697   -6.6096 C.3     1  LIG1       -0.0383
     36 C          -3.0818    4.1046    0.7003 C.3     1  LIG1        0.0783
     37 C           4.5679    4.0392    1.7174 C.ar    1  LIG1       -0.0163
     38 C           3.8223    2.1508    3.0109 C.ar    1  LIG1       -0.0581
     39 C           4.7536    3.1580    2.7802 C.ar    1  LIG1       -0.0581
     40 C          -1.0522   -5.6855   -0.4589 C.ar    1  LIG1        0.0207
     41 C           2.1249    5.3019   -0.5283 C.3     1  LIG1        0.0790
     42 H          -4.7836    4.9997    0.9767 H       1  LIG1        0.2095
     43 H           2.9732   -0.9398   -0.5267 H       1  LIG1        0.1754
     44 H          -0.8403   -8.7136   -0.7180 H       1  LIG1        0.1651
     45 H           1.2548    1.8045   -3.5995 H       1  LIG1        0.0653
     46 H           0.2210   -3.3093   -0.4023 H       1  LIG1        0.0646
     47 H           0.0191    0.8155   -5.5147 H       1  LIG1        0.0622
     48 H          -3.3840   -0.9493   -0.1197 H       1  LIG1        0.0640
     49 H          -2.8613    2.0479    1.2930 H       1  LIG1        0.0720
     50 H          -2.9756    2.3030   -0.4678 H       1  LIG1        0.0720
     51 H           2.3270   -2.7865   -4.9729 H       1  LIG1        0.0833
     52 H           2.0195    1.2064    2.3748 H       1  LIG1        0.0655
     53 H          -4.6641   -3.0655   -0.1862 H       1  LIG1        0.0830
     54 H          -0.5716   -1.2406   -6.7790 H       1  LIG1        0.0278
     55 H           0.2976   -2.7516   -6.5009 H       1  LIG1        0.0278
     56 H           1.0429   -1.4699   -7.4889 H       1  LIG1        0.0278
     57 H          -2.6626    4.5219    1.6222 H       1  LIG1        0.0591
     58 H          -2.7920    4.7651   -0.1241 H       1  LIG1        0.0591
     59 H           5.2894    4.8342    1.5431 H       1  LIG1        0.0655
     60 H           3.9578    1.4695    3.8471 H       1  LIG1        0.0619
     61 H           5.6198    3.2642    3.4273 H       1  LIG1        0.0619
     62 H           2.2243    6.3113   -0.9403 H       1  LIG1        0.0660
     63 H           1.4102    5.3574    0.3004 H       1  LIG1        0.0660
     64 H           1.7543    4.6594   -1.3322 H       1  LIG1        0.0660
@<TRIPOS>BOND
     1     1     4    2
     2     1     5    2
     3     1     8    1
     4     1    21    1
     5     2    18    1
     6     2    24    1
     7     3    19    1
     8     3    29    1
     9     6    32    1
    10     6    41    1
    11     7    36    1
    12     8    17    1
    13     9    17   ar
    14     9    20   ar
    15    10    19   ar
    16    10    20   ar
    17    11    21   ar
    18    11    31   ar
    19    12    30   ar
    20    12    34   ar
    21    13    15   ar
    22    13    40   ar
    23    14    16   ar
    24    14    40   ar
    25    15    16   ar
    26    17    18   ar
    27    18    19   ar
    28    20    22    1
    29    21    23   ar
    30    22    25   ar
    31    22    28   ar
    32    23    27   ar
    33    24    32   ar
    34    24    33   ar
    35    25    30   ar
    36    26    27   ar
    37    26    31   ar
    38    26    35    1
    39    28    34   ar
    40    29    36    1
    41    30    40    1
    42    32    37   ar
    43    33    38   ar
    44    37    39   ar
    45    38    39   ar
    46     7    42    1
    47     8    43    1
    48    15    44    1
    49    23    45    1
    50    25    46    1
    51    27    47    1
    52    28    48    1
    53    29    49    1
    54    29    50    1
    55    31    51    1
    56    33    52    1
    57    34    53    1
    58    35    54    1
    59    35    55    1
    60    35    56    1
    61    36    57    1
    62    36    58    1
    63    37    59    1
    64    38    60    1
    65    39    61    1
    66    41    62    1
    67    41    63    1
    68    41    64    1
@<TRIPOS>MOLECULE
6433095
 64 68 0 0 0
SMALL
GASTEIGER

@<TRIPOS>ATOM
      1 S           3.4102    0.0524   -1.9692 S.O2    1  LIG1        0.0908
      2 O           1.4631    2.7861    0.0547 O.3     1  LIG1       -0.4435
      3 O          -1.2001    2.7933    0.0841 O.3     1  LIG1       -0.4715
      4 O           3.6598   -1.3606   -2.1879 O.2     1  LIG1       -0.1484
      5 O           4.5057    0.9969   -2.0595 O.2     1  LIG1       -0.1484
      6 O           3.5088    4.7867   -0.3560 O.3     1  LIG1       -0.4914
      7 O          -4.5969    4.1098    0.1576 O.3     1  LIG1       -0.3917
      8 N           2.8072    0.2244   -0.4031 N.pl3   1  LIG1       -0.1950
      9 N           0.7140   -0.7924   -0.3778 N.ar    1  LIG1       -0.2073
     10 N          -1.2946    0.4514   -0.1052 N.ar    1  LIG1       -0.1899
     11 N           2.0506    1.8857   -3.3705 N.ar    1  LIG1       -0.2351
     12 N          -2.9980   -4.2903   -0.1662 N.ar    1  LIG1       -0.2552
     13 N          -1.7117   -6.8533   -0.0945 N.ar    1  LIG1       -0.5621
     14 N           0.2842   -5.9110   -0.5848 N.ar    1  LIG1       -0.1535
     15 N          -0.7153   -7.7325   -0.2442 N.ar    1  LIG1       -0.3597
     16 N           0.4839   -7.2203   -0.5377 N.ar    1  LIG1       -0.0878
     17 C           1.4018    0.3575   -0.2500 C.ar    1  LIG1        0.1882
     18 C           0.8152    1.5893   -0.0323 C.ar    1  LIG1        0.2307
     19 C          -0.5605    1.5728   -0.0179 C.ar    1  LIG1        0.2641
     20 C          -0.6247   -0.7041   -0.2602 C.ar    1  LIG1        0.1659
     21 C           2.1186    0.5541   -3.1064 C.ar    1  LIG1        0.1969
     22 C          -1.4288   -1.9434   -0.2593 C.ar    1  LIG1        0.0227
     23 C           1.3350   -0.4151   -3.7133 C.ar    1  LIG1       -0.0160
     24 C           2.4550    2.9765    0.9901 C.ar    1  LIG1        0.1702
     25 C          -0.8418   -3.2176   -0.3294 C.ar    1  LIG1       -0.0252
     26 C           0.3409    1.3557   -5.0106 C.ar    1  LIG1       -0.0322
     27 C           0.4246    0.0014   -4.6758 C.ar    1  LIG1       -0.0541
     28 C          -2.8292   -1.8945   -0.1509 C.ar    1  LIG1       -0.0328
     29 C          -2.6238    2.7104    0.1350 C.3     1  LIG1        0.1143
     30 C          -1.6456   -4.3581   -0.2741 C.ar    1  LIG1        0.0708
     31 C           1.1757    2.2466   -4.3366 C.ar    1  LIG1        0.0327
     32 C           3.4397    3.9391    0.7173 C.ar    1  LIG1        0.1621
     33 C           2.5291    2.2283    2.1777 C.ar    1  LIG1       -0.0157
     34 C          -3.5574   -3.0697   -0.1086 C.ar    1  LIG1        0.0289
     35 C          -0.5496    1.8180   -6.1215 C.3     1  LIG1       -0.0383
     36 C          -3.1805    4.1271    0.0488 C.3     1  LIG1        0.0783
     37 C           4.5330    4.0599    1.5836 C.ar    1  LIG1       -0.0163
     38 C           3.6225    2.3662    3.0341 C.ar    1  LIG1       -0.0581
     39 C           4.6317    3.2729    2.7302 C.ar    1  LIG1       -0.0581
     40 C          -1.0523   -5.6976   -0.3160 C.ar    1  LIG1        0.0207
     41 C           2.2995    5.1081   -1.0306 C.3     1  LIG1        0.0790
     42 H          -4.8960    5.0348    0.1123 H       1  LIG1        0.2095
     43 H           3.3535    0.9712    0.0227 H       1  LIG1        0.1754
     44 H          -0.8577   -8.7330   -0.1384 H       1  LIG1        0.1651
     45 H           1.4392   -1.4645   -3.4565 H       1  LIG1        0.0653
     46 H           0.2389   -3.3189   -0.4063 H       1  LIG1        0.0646
     47 H          -0.1945   -0.7364   -5.1806 H       1  LIG1        0.0622
     48 H          -3.3585   -0.9473   -0.0871 H       1  LIG1        0.0640
     49 H          -2.9421    2.2437    1.0754 H       1  LIG1        0.0720
     50 H          -3.0262    2.1242   -0.7011 H       1  LIG1        0.0720
     51 H           1.1746    3.3072   -4.5793 H       1  LIG1        0.0833
     52 H           1.7602    1.5086    2.4459 H       1  LIG1        0.0655
     53 H          -4.6403   -3.0578   -0.0177 H       1  LIG1        0.0830
     54 H          -1.3769    1.1177   -6.2791 H       1  LIG1        0.0278
     55 H           0.0229    1.8920   -7.0519 H       1  LIG1        0.0278
     56 H          -0.9863    2.7949   -5.8921 H       1  LIG1        0.0278
     57 H          -2.7656    4.7528    0.8462 H       1  LIG1        0.0591
     58 H          -2.9029    4.5838   -0.9077 H       1  LIG1        0.0591
     59 H           5.3180    4.7786    1.3571 H       1  LIG1        0.0655
     60 H           3.6926    1.7572    3.9326 H       1  LIG1        0.0619
     61 H           5.4929    3.3757    3.3856 H       1  LIG1        0.0619
     62 H           2.4683    6.0303   -1.5951 H       1  LIG1        0.0660
     63 H           1.4749    5.2998   -0.3353 H       1  LIG1        0.0660
     64 H           2.0437    4.3282   -1.7530 H       1  LIG1        0.0660
@<TRIPOS>BOND
     1     1     4    2
     2     1     5    2
     3     1     8    1
     4     1    21    1
     5     2    18    1
     6     2    24    1
     7     3    19    1
     8     3    29    1
     9     6    32    1
    10     6    41    1
    11     7    36    1
    12     8    17    1
    13     9    17   ar
    14     9    20   ar
    15    10    19   ar
    16    10    20   ar
    17    11    21   ar
    18    11    31   ar
    19    12    30   ar
    20    12    34   ar
    21    13    15   ar
    22    13    40   ar
    23    14    16   ar
    24    14    40   ar
    25    15    16   ar
    26    17    18   ar
    27    18    19   ar
    28    20    22    1
    29    21    23   ar
    30    22    25   ar
    31    22    28   ar
    32    23    27   ar
    33    24    32   ar
    34    24    33   ar
    35    25    30   ar
    36    26    27   ar
    37    26    31   ar
    38    26    35    1
    39    28    34   ar
    40    29    36    1
    41    30    40    1
    42    32    37   ar
    43    33    38   ar
    44    37    39   ar
    45    38    39   ar
    46     7    42    1
    47     8    43    1
    48    15    44    1
    49    23    45    1
    50    25    46    1
    51    27    47    1
    52    28    48    1
    53    29    49    1
    54    29    50    1
    55    31    51    1
    56    33    52    1
    57    34    53    1
    58    35    54    1
    59    35    55    1
    60    35    56    1
    61    36    57    1
    62    36    58    1
    63    37    59    1
    64    38    60    1
    65    39    61    1
    66    41    62    1
    67    41    63    1
    68    41    64    1
@<TRIPOS>MOLECULE
6433095
 64 68 0 0 0
SMALL
GASTEIGER

@<TRIPOS>ATOM
      1 S           3.4509    0.0905   -1.9882 S.O2    1  LIG1        0.0908
      2 O           1.5028    2.7851    0.0876 O.3     1  LIG1       -0.4435
      3 O          -1.1566    2.7881    0.1967 O.3     1  LIG1       -0.4715
      4 O           3.8033   -1.3020   -2.1826 O.2     1  LIG1       -0.1484
      5 O           4.4803    1.1104   -2.0944 O.2     1  LIG1       -0.1484
      6 O           3.4245    4.8361   -0.2723 O.3     1  LIG1       -0.4914
      7 O          -4.3845    2.5147    1.9236 O.3     1  LIG1       -0.3917
      8 N           2.8439    0.2343   -0.4244 N.pl3   1  LIG1       -0.1950
      9 N           0.7502   -0.7810   -0.4225 N.ar    1  LIG1       -0.2073
     10 N          -1.2547    0.4534   -0.0750 N.ar    1  LIG1       -0.1899
     11 N           1.7461    1.7958   -3.1403 N.ar    1  LIG1       -0.2351
     12 N          -2.9598   -4.2826   -0.3295 N.ar    1  LIG1       -0.2552
     13 N          -1.6808   -6.8336   -0.6685 N.ar    1  LIG1       -0.5621
     14 N           0.3427   -5.9058   -0.2720 N.ar    1  LIG1       -0.1535
     15 N          -0.6771   -7.7157   -0.6140 N.ar    1  LIG1       -0.3597
     16 N           0.5388   -7.2121   -0.3798 N.ar    1  LIG1       -0.0878
     17 C           1.4379    0.3670   -0.2776 C.ar    1  LIG1        0.1882
     18 C           0.8538    1.5914   -0.0169 C.ar    1  LIG1        0.2307
     19 C          -0.5206    1.5733    0.0250 C.ar    1  LIG1        0.2641
     20 C          -0.5863   -0.6957   -0.2836 C.ar    1  LIG1        0.1659
     21 C           2.1468    0.4940   -3.1401 C.ar    1  LIG1        0.1969
     22 C          -1.3900   -1.9343   -0.3158 C.ar    1  LIG1        0.0227
     23 C           1.6555   -0.4837   -3.9906 C.ar    1  LIG1       -0.0160
     24 C           2.4820    2.9670    1.0373 C.ar    1  LIG1        0.1702
     25 C          -0.7997   -3.2070   -0.3838 C.ar    1  LIG1       -0.0252
     26 C           0.2719    1.2234   -4.9818 C.ar    1  LIG1       -0.0322
     27 C           0.6978   -0.1066   -4.9237 C.ar    1  LIG1       -0.0541
     28 C          -2.7931   -1.8872   -0.2528 C.ar    1  LIG1       -0.0328
     29 C          -2.5759    2.7274    0.3327 C.3     1  LIG1        0.1143
     30 C          -1.6042   -4.3481   -0.3877 C.ar    1  LIG1        0.0708
     31 C           0.8268    2.1263   -4.0747 C.ar    1  LIG1        0.0327
     32 C           3.4310    3.9710    0.7906 C.ar    1  LIG1        0.1621
     33 C           2.5915    2.1839    2.1960 C.ar    1  LIG1       -0.0157
     34 C          -3.5213   -3.0633   -0.2617 C.ar    1  LIG1        0.0289
     35 C          -0.7010    1.6781   -6.0239 C.3     1  LIG1       -0.0383
     36 C          -2.9714    2.4574    1.7807 C.3     1  LIG1        0.0783
     37 C           4.5378    4.0969    1.6337 C.ar    1  LIG1       -0.0163
     38 C           3.6915    2.3326    3.0429 C.ar    1  LIG1       -0.0581
     39 C           4.6724    3.2772    2.7530 C.ar    1  LIG1       -0.0581
     40 C          -1.0085   -5.6857   -0.4456 C.ar    1  LIG1        0.0207
     41 C           2.1484    5.3719   -0.6145 C.3     1  LIG1        0.0790
     42 H          -4.5780    2.3894    2.8691 H       1  LIG1        0.2095
     43 H           3.3746    0.9942   -0.0044 H       1  LIG1        0.1754
     44 H          -0.8262   -8.7121   -0.7462 H       1  LIG1        0.1651
     45 H           2.0149   -1.5058   -3.9413 H       1  LIG1        0.0653
     46 H           0.2830   -3.3067   -0.4268 H       1  LIG1        0.0646
     47 H           0.3037   -0.8491   -5.6136 H       1  LIG1        0.0622
     48 H          -3.3249   -0.9411   -0.1917 H       1  LIG1        0.0640
     49 H          -3.0474    2.0249   -0.3664 H       1  LIG1        0.0720
     50 H          -2.9636    3.7115    0.0421 H       1  LIG1        0.0720
     51 H           0.5439    3.1771   -4.0889 H       1  LIG1        0.0833
     52 H           1.8513    1.4291    2.4464 H       1  LIG1        0.0655
     53 H          -4.6068   -3.0532   -0.2093 H       1  LIG1        0.0830
     54 H          -1.1844    0.8264   -6.5146 H       1  LIG1        0.0278
     55 H          -0.1826    2.2628   -6.7905 H       1  LIG1        0.0278
     56 H          -1.4888    2.2903   -5.5743 H       1  LIG1        0.0278
     57 H          -2.6237    1.4730    2.1088 H       1  LIG1        0.0591
     58 H          -2.5157    3.2043    2.4402 H       1  LIG1        0.0591
     59 H           5.2986    4.8423    1.4137 H       1  LIG1        0.0655
     60 H           3.7926    1.6991    3.9212 H       1  LIG1        0.0619
     61 H           5.5403    3.3817    3.3995 H       1  LIG1        0.0619
     62 H           2.3075    6.3693   -1.0355 H       1  LIG1        0.0660
     63 H           1.4888    5.4832    0.2541 H       1  LIG1        0.0660
     64 H           1.6760    4.7601   -1.3889 H       1  LIG1        0.0660
@<TRIPOS>BOND
     1     1     4    2
     2     1     5    2
     3     1     8    1
     4     1    21    1
     5     2    18    1
     6     2    24    1
     7     3    19    1
     8     3    29    1
     9     6    32    1
    10     6    41    1
    11     7    36    1
    12     8    17    1
    13     9    17   ar
    14     9    20   ar
    15    10    19   ar
    16    10    20   ar
    17    11    21   ar
    18    11    31   ar
    19    12    30   ar
    20    12    34   ar
    21    13    15   ar
    22    13    40   ar
    23    14    16   ar
    24    14    40   ar
    25    15    16   ar
    26    17    18   ar
    27    18    19   ar
    28    20    22    1
    29    21    23   ar
    30    22    25   ar
    31    22    28   ar
    32    23    27   ar
    33    24    32   ar
    34    24    33   ar
    35    25    30   ar
    36    26    27   ar
    37    26    31   ar
    38    26    35    1
    39    28    34   ar
    40    29    36    1
    41    30    40    1
    42    32    37   ar
    43    33    38   ar
    44    37    39   ar
    45    38    39   ar
    46     7    42    1
    47     8    43    1
    48    15    44    1
    49    23    45    1
    50    25    46    1
    51    27    47    1
    52    28    48    1
    53    29    49    1
    54    29    50    1
    55    31    51    1
    56    33    52    1
    57    34    53    1
    58    35    54    1
    59    35    55    1
    60    35    56    1
    61    36    57    1
    62    36    58    1
    63    37    59    1
    64    38    60    1
    65    39    61    1
    66    41    62    1
    67    41    63    1
    68    41    64    1
@<TRIPOS>MOLECULE
6433095
 64 68 0 0 0
SMALL
GASTEIGER

@<TRIPOS>ATOM
      1 S           3.2176    0.2319   -1.9748 S.O2    1  LIG1        0.0908
      2 O           1.3478    2.8712    0.1736 O.3     1  LIG1       -0.4435
      3 O          -1.3278    2.7647    0.2339 O.3     1  LIG1       -0.4715
      4 O           2.3671    1.1304   -2.7337 O.2     1  LIG1       -0.1484
      5 O           3.3550   -1.1668   -2.3313 O.2     1  LIG1       -0.1484
      6 O           3.4489    4.7255   -0.3946 O.3     1  LIG1       -0.4914
      7 O          -4.8826    2.4902   -0.6982 O.3     1  LIG1       -0.3917
      8 N           2.7764    0.3320   -0.3320 N.pl3   1  LIG1       -0.1950
      9 N           0.7334   -0.7432   -0.2139 N.ar    1  LIG1       -0.2073
     10 N          -1.3249    0.4268    0.0075 N.ar    1  LIG1       -0.1899
     11 N           4.9802    2.2162   -2.2814 N.ar    1  LIG1       -0.2351
     12 N          -2.8084   -4.3814   -0.0561 N.ar    1  LIG1       -0.2552
     13 N          -5.5071   -2.2881   -1.4095 N.ar    1  LIG1       -0.5621
     14 N          -5.5623   -4.4454   -0.7262 N.ar    1  LIG1       -0.1535
     15 N          -6.6928   -2.8910   -1.5818 N.ar    1  LIG1       -0.3597
     16 N          -6.7724   -4.1637   -1.1882 N.ar    1  LIG1       -0.0878
     17 C           1.3717    0.4357   -0.1328 C.ar    1  LIG1        0.1882
     18 C           0.7412    1.6502    0.0734 C.ar    1  LIG1        0.2307
     19 C          -0.6337    1.5783    0.1030 C.ar    1  LIG1        0.2641
     20 C          -0.6058   -0.6997   -0.1322 C.ar    1  LIG1        0.1659
     21 C           4.8745    0.9242   -1.8844 C.ar    1  LIG1        0.1969
     22 C          -1.3490   -1.9691   -0.1361 C.ar    1  LIG1        0.0227
     23 C           5.9022    0.1788   -1.3275 C.ar    1  LIG1       -0.0160
     24 C           2.3794    3.0470    1.0697 C.ar    1  LIG1        0.1702
     25 C          -2.7032   -2.0194   -0.5076 C.ar    1  LIG1       -0.0252
     26 C           7.2953    2.1358   -1.5733 C.ar    1  LIG1       -0.0322
     27 C           7.1355    0.8049   -1.1722 C.ar    1  LIG1       -0.0541
     28 C          -0.7486   -3.1699    0.2607 C.ar    1  LIG1       -0.0328
     29 C          -2.7396    2.6296    0.4120 C.3     1  LIG1        0.1143
     30 C          -3.3949   -3.2281   -0.4629 C.ar    1  LIG1        0.0708
     31 C           6.1954    2.7839   -2.1302 C.ar    1  LIG1        0.0327
     32 C           3.4050    3.9409    0.7267 C.ar    1  LIG1        0.1621
     33 C           2.4550    2.3424    2.2809 C.ar    1  LIG1       -0.0157
     34 C          -1.5070   -4.3279    0.2909 C.ar    1  LIG1        0.0289
     35 C           8.6142    2.8337   -1.4585 C.3     1  LIG1       -0.0383
     36 C          -3.4758    2.4824   -0.9174 C.3     1  LIG1        0.0783
     37 C           4.5457    4.0223    1.5307 C.ar    1  LIG1       -0.0163
     38 C           3.5900    2.4485    3.0870 C.ar    1  LIG1       -0.0581
     39 C           4.6425    3.2750    2.7034 C.ar    1  LIG1       -0.0581
     40 C          -4.8017   -3.3028   -0.8638 C.ar    1  LIG1        0.0207
     41 C           2.2150    5.3415   -0.7564 C.3     1  LIG1        0.0790
     42 H          -5.3013    2.3280   -1.5612 H       1  LIG1        0.2095
     43 H           3.3079    1.0843    0.1008 H       1  LIG1        0.1754
     44 H          -7.4903   -2.4114   -1.9897 H       1  LIG1        0.1651
     45 H           5.7459   -0.8458   -1.0057 H       1  LIG1        0.0653
     46 H          -3.2159   -1.1164   -0.8314 H       1  LIG1        0.0646
     47 H           7.9660    0.2554   -0.7342 H       1  LIG1        0.0622
     48 H           0.2954   -3.2038    0.5593 H       1  LIG1        0.0640
     49 H          -3.0827    3.5515    0.8968 H       1  LIG1        0.0720
     50 H          -2.9992    1.8303    1.1185 H       1  LIG1        0.0720
     51 H           6.2625    3.8118   -2.4793 H       1  LIG1        0.0833
     52 H           1.6505    1.6864    2.6036 H       1  LIG1        0.0655
     53 H          -1.0739   -5.2722    0.6101 H       1  LIG1        0.0830
     54 H           9.2765    2.3186   -0.7542 H       1  LIG1        0.0278
     55 H           8.4780    3.8561   -1.0897 H       1  LIG1        0.0278
     56 H           9.1078    2.8687   -2.4351 H       1  LIG1        0.0278
     57 H          -3.2176    3.3075   -1.5895 H       1  LIG1        0.0591
     58 H          -3.2076    1.5502   -1.4233 H       1  LIG1        0.0591
     59 H           5.3598    4.6829    1.2415 H       1  LIG1        0.0655
     60 H           3.6563    1.8791    4.0114 H       1  LIG1        0.0619
     61 H           5.5325    3.3515    3.3233 H       1  LIG1        0.0619
     62 H           2.4497    6.2810   -1.2662 H       1  LIG1        0.0660
     63 H           1.5950    5.5861    0.1139 H       1  LIG1        0.0660
     64 H           1.6687    4.7103   -1.4632 H       1  LIG1        0.0660
@<TRIPOS>BOND
     1     1     4    2
     2     1     5    2
     3     1     8    1
     4     1    21    1
     5     2    18    1
     6     2    24    1
     7     3    19    1
     8     3    29    1
     9     6    32    1
    10     6    41    1
    11     7    36    1
    12     8    17    1
    13     9    17   ar
    14     9    20   ar
    15    10    19   ar
    16    10    20   ar
    17    11    21   ar
    18    11    31   ar
    19    12    30   ar
    20    12    34   ar
    21    13    15   ar
    22    13    40   ar
    23    14    16   ar
    24    14    40   ar
    25    15    16   ar
    26    17    18   ar
    27    18    19   ar
    28    20    22    1
    29    21    23   ar
    30    22    25   ar
    31    22    28   ar
    32    23    27   ar
    33    24    32   ar
    34    24    33   ar
    35    25    30   ar
    36    26    27   ar
    37    26    31   ar
    38    26    35    1
    39    28    34   ar
    40    29    36    1
    41    30    40    1
    42    32    37   ar
    43    33    38   ar
    44    37    39   ar
    45    38    39   ar
    46     7    42    1
    47     8    43    1
    48    15    44    1
    49    23    45    1
    50    25    46    1
    51    27    47    1
    52    28    48    1
    53    29    49    1
    54    29    50    1
    55    31    51    1
    56    33    52    1
    57    34    53    1
    58    35    54    1
    59    35    55    1
    60    35    56    1
    61    36    57    1
    62    36    58    1
    63    37    59    1
    64    38    60    1
    65    39    61    1
    66    41    62    1
    67    41    63    1
    68    41    64    1
@<TRIPOS>MOLECULE
6433095
 64 68 0 0 0
SMALL
GASTEIGER

@<TRIPOS>ATOM
      1 S           3.2432    0.2258   -2.0047 S.O2    1  LIG1        0.0908
      2 O           1.3479    2.9095    0.1620 O.3     1  LIG1       -0.4435
      3 O          -1.3340    2.7895    0.2228 O.3     1  LIG1       -0.4715
      4 O           2.4167    1.0959   -2.8134 O.2     1  LIG1       -0.1484
      5 O           3.3794   -1.1865   -2.3062 O.2     1  LIG1       -0.1484
      6 O           3.2731    4.5880   -0.4739 O.3     1  LIG1       -0.4914
      7 O          -4.8951    2.4580   -0.6645 O.3     1  LIG1       -0.3917
      8 N           2.7867    0.3900   -0.3751 N.pl3   1  LIG1       -0.1950
      9 N           0.7480   -0.7015   -0.2655 N.ar    1  LIG1       -0.2073
     10 N          -1.3141    0.4545   -0.0201 N.ar    1  LIG1       -0.1899
     11 N           5.0273    2.1926   -2.3306 N.ar    1  LIG1       -0.2351
     12 N          -2.7871   -4.3496    0.0177 N.ar    1  LIG1       -0.2552
     13 N          -5.6428   -4.2914   -0.4489 N.ar    1  LIG1       -0.5621
     14 N          -5.4745   -2.2141   -1.3274 N.ar    1  LIG1       -0.1535
     15 N          -6.7883   -3.8139   -0.9481 N.ar    1  LIG1       -0.3597
     16 N          -6.7364   -2.5881   -1.4798 N.ar    1  LIG1       -0.0878
     17 C           1.3785    0.4809   -0.1876 C.ar    1  LIG1        0.1882
     18 C           0.7432    1.6899    0.0357 C.ar    1  LIG1        0.2307
     19 C          -0.6313    1.6091    0.0732 C.ar    1  LIG1        0.2641
     20 C          -0.5902   -0.6687   -0.1672 C.ar    1  LIG1        0.1659
     21 C           4.9075    0.9076   -1.9152 C.ar    1  LIG1        0.1969
     22 C          -1.3288   -1.9404   -0.1453 C.ar    1  LIG1        0.0227
     23 C           5.9255    0.1637   -1.3379 C.ar    1  LIG1       -0.0160
     24 C           2.3761    3.0540    1.0730 C.ar    1  LIG1        0.1702
     25 C          -2.6977   -1.9922   -0.4600 C.ar    1  LIG1       -0.0252
     26 C           7.3356    2.1054   -1.6015 C.ar    1  LIG1       -0.0322
     27 C           7.1623    0.7830   -1.1798 C.ar    1  LIG1       -0.0541
     28 C          -0.7129   -3.1394    0.2327 C.ar    1  LIG1       -0.0328
     29 C          -2.7420    2.6411    0.4139 C.3     1  LIG1        0.1143
     30 C          -3.3898   -3.1979   -0.3721 C.ar    1  LIG1        0.0708
     31 C           6.2469    2.7502   -2.1841 C.ar    1  LIG1        0.0327
     32 C           3.4132    3.9338    0.7205 C.ar    1  LIG1        0.1621
     33 C           2.4206    2.3652    2.2918 C.ar    1  LIG1       -0.0157
     34 C          -1.4711   -4.2957    0.3048 C.ar    1  LIG1        0.0289
     35 C           8.6559    2.7999   -1.4811 C.3     1  LIG1       -0.0383
     36 C          -3.4928    2.4919   -0.9073 C.3     1  LIG1        0.0783
     37 C           4.5293    4.0454    1.5529 C.ar    1  LIG1       -0.0163
     38 C           3.5367    2.4895    3.1183 C.ar    1  LIG1       -0.0581
     39 C           4.5932    3.3177    2.7437 C.ar    1  LIG1       -0.0581
     40 C          -4.8163   -3.2567   -0.7032 C.ar    1  LIG1        0.0207
     41 C           4.0117    5.7925   -0.6278 C.3     1  LIG1        0.0790
     42 H          -5.3245    2.2523   -1.5135 H       1  LIG1        0.2095
     43 H           3.2965    1.1766    0.0183 H       1  LIG1        0.1754
     44 H          -7.6520   -4.3486   -0.9237 H       1  LIG1        0.1651
     45 H           5.7595   -0.8551   -1.0028 H       1  LIG1        0.0653
     46 H          -3.2206   -1.0882   -0.7643 H       1  LIG1        0.0646
     47 H           7.9841    0.2344   -0.7249 H       1  LIG1        0.0622
     48 H           0.3427   -3.1721    0.4884 H       1  LIG1        0.0640
     49 H          -3.0889    3.5576    0.9066 H       1  LIG1        0.0720
     50 H          -2.9865    1.8364    1.1199 H       1  LIG1        0.0720
     51 H           6.3278    3.7688   -2.5564 H       1  LIG1        0.0833
     52 H           1.6052    1.7188    2.6053 H       1  LIG1        0.0655
     53 H          -1.0262   -5.2382    0.6121 H       1  LIG1        0.0830
     54 H           9.3100    2.2890   -0.7667 H       1  LIG1        0.0278
     55 H           8.5180    3.8251   -1.1213 H       1  LIG1        0.0278
     56 H           9.1574    2.8264   -2.4532 H       1  LIG1        0.0278
     57 H          -3.2677    3.3327   -1.5718 H       1  LIG1        0.0591
     58 H          -3.2071    1.5744   -1.4300 H       1  LIG1        0.0591
     59 H           5.3711    4.6780    1.2905 H       1  LIG1        0.0655
     60 H           3.5849    1.9368    4.0539 H       1  LIG1        0.0619
     61 H           5.4676    3.4043    3.3848 H       1  LIG1        0.0619
     62 H           3.6174    6.3172   -1.5034 H       1  LIG1        0.0660
     63 H           5.0684    5.5784   -0.8142 H       1  LIG1        0.0660
     64 H           3.8918    6.4531    0.2380 H       1  LIG1        0.0660
@<TRIPOS>BOND
     1     1     4    2
     2     1     5    2
     3     1     8    1
     4     1    21    1
     5     2    18    1
     6     2    24    1
     7     3    19    1
     8     3    29    1
     9     6    32    1
    10     6    41    1
    11     7    36    1
    12     8    17    1
    13     9    17   ar
    14     9    20   ar
    15    10    19   ar
    16    10    20   ar
    17    11    21   ar
    18    11    31   ar
    19    12    30   ar
    20    12    34   ar
    21    13    15   ar
    22    13    40   ar
    23    14    16   ar
    24    14    40   ar
    25    15    16   ar
    26    17    18   ar
    27    18    19   ar
    28    20    22    1
    29    21    23   ar
    30    22    25   ar
    31    22    28   ar
    32    23    27   ar
    33    24    32   ar
    34    24    33   ar
    35    25    30   ar
    36    26    27   ar
    37    26    31   ar
    38    26    35    1
    39    28    34   ar
    40    29    36    1
    41    30    40    1
    42    32    37   ar
    43    33    38   ar
    44    37    39   ar
    45    38    39   ar
    46     7    42    1
    47     8    43    1
    48    15    44    1
    49    23    45    1
    50    25    46    1
    51    27    47    1
    52    28    48    1
    53    29    49    1
    54    29    50    1
    55    31    51    1
    56    33    52    1
    57    34    53    1
    58    35    54    1
    59    35    55    1
    60    35    56    1
    61    36    57    1
    62    36    58    1
    63    37    59    1
    64    38    60    1
    65    39    61    1
    66    41    62    1
    67    41    63    1
    68    41    64    1
@<TRIPOS>MOLECULE
6433095
 64 68 0 0 0
SMALL
GASTEIGER

@<TRIPOS>ATOM
      1 S           3.2557    0.4997   -1.6915 S.O2    1  LIG1        0.0908
      2 O           1.3016    2.7407    0.0609 O.3     1  LIG1       -0.4435
      3 O          -1.5403    2.7195   -0.2669 O.3     1  LIG1       -0.4715
      4 O           4.5701    1.0623   -1.4288 O.2     1  LIG1       -0.1484
      5 O           2.3328    1.1998   -2.5614 O.2     1  LIG1       -0.1484
      6 O           2.0789    5.2114   -0.4865 O.3     1  LIG1       -0.4914
      7 O          -1.9227    1.3118   -3.0429 O.3     1  LIG1       -0.3917
      8 N           2.5875    0.2808   -0.1467 N.pl3   1  LIG1       -0.1950
      9 N           0.5411   -0.8006   -0.1751 N.ar    1  LIG1       -0.2073
     10 N          -1.5175    0.3945   -0.1480 N.ar    1  LIG1       -0.1899
     11 N           2.3818   -1.8601   -2.5792 N.ar    1  LIG1       -0.2351
     12 N          -3.0432   -4.3872   -0.2470 N.ar    1  LIG1       -0.2552
     13 N          -2.0262   -6.6626   -1.6634 N.ar    1  LIG1       -0.5621
     14 N          -0.0975   -5.5789   -2.1312 N.ar    1  LIG1       -0.1535
     15 N          -1.1590   -7.3787   -2.3853 N.ar    1  LIG1       -0.3597
     16 N          -0.0015   -6.7794   -2.6844 N.ar    1  LIG1       -0.0878
     17 C           1.1704    0.3803   -0.1070 C.ar    1  LIG1        0.1882
     18 C           0.5429    1.6097   -0.0372 C.ar    1  LIG1        0.2307
     19 C          -0.8261    1.5462   -0.1666 C.ar    1  LIG1        0.2641
     20 C          -0.8002   -0.7408   -0.1770 C.ar    1  LIG1        0.1659
     21 C           3.5152   -1.1536   -2.3313 C.ar    1  LIG1        0.1969
     22 C          -1.5543   -1.9994   -0.1891 C.ar    1  LIG1        0.0227
     23 C           4.8002   -1.5991   -2.6095 C.ar    1  LIG1       -0.0160
     24 C           0.9465    3.7222    0.9660 C.ar    1  LIG1        0.1702
     25 C          -1.0433   -3.1562   -0.7948 C.ar    1  LIG1       -0.0252
     26 C           3.7994   -3.6274   -3.4464 C.ar    1  LIG1       -0.0322
     27 C           4.9374   -2.8624   -3.1773 C.ar    1  LIG1       -0.0541
     28 C          -2.8293   -2.0791    0.3879 C.ar    1  LIG1       -0.0328
     29 C          -2.6776    2.6340   -1.1398 C.3     1  LIG1        0.1143
     30 C          -1.8130   -4.3166   -0.8212 C.ar    1  LIG1        0.0708
     31 C           2.5570   -3.0821   -3.1279 C.ar    1  LIG1        0.0327
     32 C           1.3657    5.0295    0.6714 C.ar    1  LIG1        0.1621
     33 C           0.2661    3.4672    2.1640 C.ar    1  LIG1       -0.0157
     34 C          -3.5202   -3.2749    0.3423 C.ar    1  LIG1        0.0289
     35 C           3.8925   -4.9837   -4.0720 C.3     1  LIG1       -0.0383
     36 C          -2.2623    2.6280   -2.6148 C.3     1  LIG1        0.0783
     37 C           1.0092    6.0810    1.5218 C.ar    1  LIG1       -0.0163
     38 C          -0.0742    4.5203    3.0147 C.ar    1  LIG1       -0.0581
     39 C           0.2848    5.8258    2.6875 C.ar    1  LIG1       -0.0581
     40 C          -1.3331   -5.5158   -1.5144 C.ar    1  LIG1        0.0207
     41 C           3.0992    6.2022   -0.4095 C.3     1  LIG1        0.0790
     42 H          -1.2932    1.3969   -3.7803 H       1  LIG1        0.2095
     43 H           3.0691    0.9184    0.4848 H       1  LIG1        0.1754
     44 H          -1.3692   -8.3237   -2.6942 H       1  LIG1        0.1651
     45 H           5.6712   -0.9840   -2.4101 H       1  LIG1        0.0653
     46 H          -0.0631   -3.1298   -1.2650 H       1  LIG1        0.0646
     47 H           5.9290   -3.2394   -3.4159 H       1  LIG1        0.0622
     48 H          -3.2807   -1.2151    0.8683 H       1  LIG1        0.0640
     49 H          -3.2522    3.5477   -0.9522 H       1  LIG1        0.0720
     50 H          -3.3290    1.7905   -0.8828 H       1  LIG1        0.0720
     51 H           1.6398   -3.6341   -3.3208 H       1  LIG1        0.0833
     52 H          -0.0244    2.4601    2.4476 H       1  LIG1        0.0655
     53 H          -4.5072   -3.3691    0.7855 H       1  LIG1        0.0830
     54 H           4.9348   -5.2816   -4.2275 H       1  LIG1        0.0278
     55 H           3.3945   -4.9840   -5.0470 H       1  LIG1        0.0278
     56 H           3.4227   -5.7325   -3.4266 H       1  LIG1        0.0278
     57 H          -3.0949    2.9638   -3.2399 H       1  LIG1        0.0591
     58 H          -1.3991    3.2814   -2.7780 H       1  LIG1        0.0591
     59 H           1.2682    7.1079    1.2850 H       1  LIG1        0.0655
     60 H          -0.6307    4.3219    3.9275 H       1  LIG1        0.0619
     61 H           0.0008    6.6471    3.3408 H       1  LIG1        0.0619
     62 H           3.7997    6.0270   -1.2315 H       1  LIG1        0.0660
     63 H           3.6642    6.1356    0.5276 H       1  LIG1        0.0660
     64 H           2.6748    7.2027   -0.5378 H       1  LIG1        0.0660
@<TRIPOS>BOND
     1     1     4    2
     2     1     5    2
     3     1     8    1
     4     1    21    1
     5     2    18    1
     6     2    24    1
     7     3    19    1
     8     3    29    1
     9     6    32    1
    10     6    41    1
    11     7    36    1
    12     8    17    1
    13     9    17   ar
    14     9    20   ar
    15    10    19   ar
    16    10    20   ar
    17    11    21   ar
    18    11    31   ar
    19    12    30   ar
    20    12    34   ar
    21    13    15   ar
    22    13    40   ar
    23    14    16   ar
    24    14    40   ar
    25    15    16   ar
    26    17    18   ar
    27    18    19   ar
    28    20    22    1
    29    21    23   ar
    30    22    25   ar
    31    22    28   ar
    32    23    27   ar
    33    24    32   ar
    34    24    33   ar
    35    25    30   ar
    36    26    27   ar
    37    26    31   ar
    38    26    35    1
    39    28    34   ar
    40    29    36    1
    41    30    40    1
    42    32    37   ar
    43    33    38   ar
    44    37    39   ar
    45    38    39   ar
    46     7    42    1
    47     8    43    1
    48    15    44    1
    49    23    45    1
    50    25    46    1
    51    27    47    1
    52    28    48    1
    53    29    49    1
    54    29    50    1
    55    31    51    1
    56    33    52    1
    57    34    53    1
    58    35    54    1
    59    35    55    1
    60    35    56    1
    61    36    57    1
    62    36    58    1
    63    37    59    1
    64    38    60    1
    65    39    61    1
    66    41    62    1
    67    41    63    1
    68    41    64    1
@<TRIPOS>MOLECULE
6433095
 64 68 0 0 0
SMALL
GASTEIGER

@<TRIPOS>ATOM
      1 S           3.4013    0.0178   -1.9547 S.O2    1  LIG1        0.0908
      2 O           1.3888    2.8285    0.1394 O.3     1  LIG1       -0.4435
      3 O          -1.2781    2.7626    0.1654 O.3     1  LIG1       -0.4715
      4 O           3.6137   -1.4091   -2.0560 O.2     1  LIG1       -0.1484
      5 O           4.5148    0.9320   -2.1334 O.2     1  LIG1       -0.1484
      6 O           3.3718    4.8084   -0.3087 O.3     1  LIG1       -0.4914
      7 O          -4.8641    2.4851   -0.6319 O.3     1  LIG1       -0.3917
      8 N           2.7993    0.3263   -0.4109 N.pl3   1  LIG1       -0.1950
      9 N           0.7326   -0.7587   -0.4027 N.ar    1  LIG1       -0.2073
     10 N          -1.3043    0.4307   -0.0983 N.ar    1  LIG1       -0.1899
     11 N           1.7341    1.7670   -3.1130 N.ar    1  LIG1       -0.2351
     12 N          -2.9398   -4.3181   -0.3369 N.ar    1  LIG1       -0.2552
     13 N          -1.6489   -6.8559   -0.6703 N.ar    1  LIG1       -0.5621
     14 N           0.3747   -5.9157   -0.3053 N.ar    1  LIG1       -0.1535
     15 N          -0.6409   -7.7329   -0.6205 N.ar    1  LIG1       -0.3597
     16 N           0.5755   -7.2218   -0.4068 N.ar    1  LIG1       -0.0878
     17 C           1.3900    0.4075   -0.2535 C.ar    1  LIG1        0.1882
     18 C           0.7734    1.6170    0.0142 C.ar    1  LIG1        0.2307
     19 C          -0.6004    1.5656    0.0336 C.ar    1  LIG1        0.2641
     20 C          -0.6073   -0.7046   -0.2821 C.ar    1  LIG1        0.1659
     21 C           2.1256    0.4637   -3.1328 C.ar    1  LIG1        0.1969
     22 C          -1.3920   -1.9558   -0.3193 C.ar    1  LIG1        0.0227
     23 C           1.6281   -0.5031   -3.9926 C.ar    1  LIG1       -0.0160
     24 C           2.3965    3.0017    1.0611 C.ar    1  LIG1        0.1702
     25 C          -0.7886   -3.2213   -0.3964 C.ar    1  LIG1       -0.0252
     26 C           0.2660    1.2274   -4.9707 C.ar    1  LIG1       -0.0322
     27 C           0.6796   -0.1067   -4.9265 C.ar    1  LIG1       -0.0541
     28 C          -2.7962   -1.9244   -0.2466 C.ar    1  LIG1       -0.0328
     29 C          -2.6828    2.6425    0.3936 C.3     1  LIG1        0.1143
     30 C          -1.5834   -4.3698   -0.4010 C.ar    1  LIG1        0.0708
     31 C           0.8235    2.1152   -4.0501 C.ar    1  LIG1        0.0327
     32 C           3.3706    3.9707    0.7756 C.ar    1  LIG1        0.1621
     33 C           2.5066    2.2345    2.2300 C.ar    1  LIG1       -0.0157
     34 C          -3.5134   -3.1063   -0.2572 C.ar    1  LIG1        0.0289
     35 C          -0.6959    1.7016   -6.0147 C.3     1  LIG1       -0.0383
     36 C          -3.4683    2.5089   -0.9089 C.3     1  LIG1        0.0783
     37 C           4.4974    4.0785    1.5945 C.ar    1  LIG1       -0.0163
     38 C           3.6276    2.3650    3.0521 C.ar    1  LIG1       -0.0581
     39 C           4.6296    3.2754    2.7264 C.ar    1  LIG1       -0.0581
     40 C          -0.9793   -5.7033   -0.4624 C.ar    1  LIG1        0.0207
     41 C           2.1082    5.3828   -0.6334 C.3     1  LIG1        0.0790
     42 H          -5.3242    2.4247   -1.4869 H       1  LIG1        0.2095
     43 H           3.3187    1.1277   -0.0604 H       1  LIG1        0.1754
     44 H          -0.7875   -8.7311   -0.7414 H       1  LIG1        0.1651
     45 H           1.9750   -1.5306   -3.9510 H       1  LIG1        0.0653
     46 H           0.2949   -3.3093   -0.4442 H       1  LIG1        0.0646
     47 H           0.2824   -0.8376   -5.6271 H       1  LIG1        0.0622
     48 H          -3.3380   -0.9851   -0.1712 H       1  LIG1        0.0640
     49 H          -2.9975    3.5674    0.8922 H       1  LIG1        0.0720
     50 H          -2.9251    1.8439    1.1068 H       1  LIG1        0.0720
     51 H           0.5507    3.1683   -4.0522 H       1  LIG1        0.0833
     52 H           1.7485    1.5066    2.5057 H       1  LIG1        0.0655
     53 H          -4.5982   -3.1071   -0.1942 H       1  LIG1        0.0830
     54 H          -1.1901    0.8588   -6.5104 H       1  LIG1        0.0278
     55 H          -0.1655    2.2809   -6.7770 H       1  LIG1        0.0278
     56 H          -1.4767    2.3235   -5.5662 H       1  LIG1        0.0278
     57 H          -3.2507    3.3529   -1.5721 H       1  LIG1        0.0591
     58 H          -3.2058    1.5934   -1.4469 H       1  LIG1        0.0591
     59 H           5.2761    4.7960    1.3462 H       1  LIG1        0.0655
     60 H           3.7276    1.7437    3.9393 H       1  LIG1        0.0619
     61 H           5.5125    3.3655    3.3545 H       1  LIG1        0.0619
     62 H           2.2930    6.3660   -1.0767 H       1  LIG1        0.0660
     63 H           1.4715    5.5327    0.2462 H       1  LIG1        0.0660
     64 H           1.5988    4.7732   -1.3858 H       1  LIG1        0.0660
@<TRIPOS>BOND
     1     1     4    2
     2     1     5    2
     3     1     8    1
     4     1    21    1
     5     2    18    1
     6     2    24    1
     7     3    19    1
     8     3    29    1
     9     6    32    1
    10     6    41    1
    11     7    36    1
    12     8    17    1
    13     9    17   ar
    14     9    20   ar
    15    10    19   ar
    16    10    20   ar
    17    11    21   ar
    18    11    31   ar
    19    12    30   ar
    20    12    34   ar
    21    13    15   ar
    22    13    40   ar
    23    14    16   ar
    24    14    40   ar
    25    15    16   ar
    26    17    18   ar
    27    18    19   ar
    28    20    22    1
    29    21    23   ar
    30    22    25   ar
    31    22    28   ar
    32    23    27   ar
    33    24    32   ar
    34    24    33   ar
    35    25    30   ar
    36    26    27   ar
    37    26    31   ar
    38    26    35    1
    39    28    34   ar
    40    29    36    1
    41    30    40    1
    42    32    37   ar
    43    33    38   ar
    44    37    39   ar
    45    38    39   ar
    46     7    42    1
    47     8    43    1
    48    15    44    1
    49    23    45    1
    50    25    46    1
    51    27    47    1
    52    28    48    1
    53    29    49    1
    54    29    50    1
    55    31    51    1
    56    33    52    1
    57    34    53    1
    58    35    54    1
    59    35    55    1
    60    35    56    1
    61    36    57    1
    62    36    58    1
    63    37    59    1
    64    38    60    1
    65    39    61    1
    66    41    62    1
    67    41    63    1
    68    41    64    1
@<TRIPOS>MOLECULE
6433095
 64 68 0 0 0
SMALL
GASTEIGER

@<TRIPOS>ATOM
      1 S           3.2304    0.2610   -2.0031 S.O2    1  LIG1        0.0908
      2 O           1.3298    2.9004    0.1813 O.3     1  LIG1       -0.4435
      3 O          -1.3444    2.7744    0.2514 O.3     1  LIG1       -0.4715
      4 O           2.4072    1.1764   -2.7666 O.2     1  LIG1       -0.1484
      5 O           3.3407   -1.1396   -2.3571 O.2     1  LIG1       -0.1484
      6 O           3.2298    4.5592   -0.5437 O.3     1  LIG1       -0.4914
      7 O          -4.8943    2.4885   -0.6981 O.3     1  LIG1       -0.3917
      8 N           2.7759    0.3685   -0.3617 N.pl3   1  LIG1       -0.1950
      9 N           0.7359   -0.7142   -0.2597 N.ar    1  LIG1       -0.2073
     10 N          -1.3269    0.4421   -0.0122 N.ar    1  LIG1       -0.1899
     11 N           5.0878    2.1438   -2.4389 N.ar    1  LIG1       -0.2351
     12 N          -2.7956   -4.3657   -0.0691 N.ar    1  LIG1       -0.2552
     13 N          -5.5033   -2.2864   -1.4261 N.ar    1  LIG1       -0.5621
     14 N          -5.5547   -4.4362   -0.7191 N.ar    1  LIG1       -0.1535
     15 N          -6.6901   -2.8908   -1.5844 N.ar    1  LIG1       -0.3597
     16 N          -6.7677   -4.1593   -1.1767 N.ar    1  LIG1       -0.0878
     17 C           1.3688    0.4678   -0.1701 C.ar    1  LIG1        0.1882
     18 C           0.7335    1.6763    0.0566 C.ar    1  LIG1        0.2307
     19 C          -0.6423    1.5950    0.0925 C.ar    1  LIG1        0.2641
     20 C          -0.6033   -0.6788   -0.1689 C.ar    1  LIG1        0.1659
     21 C           4.9036    0.9115   -1.9017 C.ar    1  LIG1        0.1969
     22 C          -1.3413   -1.9510   -0.1692 C.ar    1  LIG1        0.0227
     23 C           5.8753    0.1964   -1.2156 C.ar    1  LIG1       -0.0160
     24 C           2.3932    3.0459    1.0500 C.ar    1  LIG1        0.1702
     25 C          -2.6967   -2.0066   -0.5367 C.ar    1  LIG1       -0.0252
     26 C           7.3666    2.0512   -1.6187 C.ar    1  LIG1       -0.0322
     27 C           7.1283    0.7860   -1.0726 C.ar    1  LIG1       -0.0541
     28 C          -0.7369   -3.1480    0.2323 C.ar    1  LIG1       -0.0328
     29 C          -2.7557    2.6283    0.4215 C.3     1  LIG1        0.1143
     30 C          -3.3859   -3.2159   -0.4812 C.ar    1  LIG1        0.0708
     31 C           6.3224    2.6711   -2.3015 C.ar    1  LIG1        0.0327
     32 C           3.4219    3.9159    0.6489 C.ar    1  LIG1        0.1621
     33 C           2.4770    2.3655    2.2714 C.ar    1  LIG1       -0.0157
     34 C          -1.4929   -4.3071    0.2729 C.ar    1  LIG1        0.0289
     35 C           8.7027    2.7163   -1.5085 C.3     1  LIG1       -0.0383
     36 C          -3.4865    2.4996   -0.9126 C.3     1  LIG1        0.0783
     37 C           4.5636    4.0336    1.4445 C.ar    1  LIG1       -0.0163
     38 C           3.6230    2.4898    3.0555 C.ar    1  LIG1       -0.0581
     39 C           4.6667    3.3134    2.6380 C.ar    1  LIG1       -0.0581
     40 C          -4.7948   -3.2953   -0.8738 C.ar    1  LIG1        0.0207
     41 C           4.1128    5.6250   -0.8616 C.3     1  LIG1        0.0790
     42 H          -5.3078    2.3485   -1.5674 H       1  LIG1        0.2095
     43 H           3.2970    1.1304    0.0632 H       1  LIG1        0.1754
     44 H          -7.4898   -2.4153   -1.9927 H       1  LIG1        0.1651
     45 H           5.6615   -0.7808   -0.7959 H       1  LIG1        0.0653
     46 H          -3.2119   -1.1060   -0.8632 H       1  LIG1        0.0646
     47 H           7.9132    0.2561   -0.5368 H       1  LIG1        0.0622
     48 H           0.3080   -3.1773    0.5291 H       1  LIG1        0.0640
     49 H          -3.1060    3.5402    0.9207 H       1  LIG1        0.0720
     50 H          -3.0132    1.8159    1.1136 H       1  LIG1        0.0720
     51 H           6.4552    3.6452   -2.7668 H       1  LIG1        0.0833
     52 H           1.6693    1.7263    2.6175 H       1  LIG1        0.0655
     53 H          -1.0575   -5.2483    0.5974 H       1  LIG1        0.0830
     54 H           9.3607    2.1804   -0.8167 H       1  LIG1        0.0278
     55 H           8.5889    3.7376   -1.1297 H       1  LIG1        0.0278
     56 H           9.1901    2.7494   -2.4880 H       1  LIG1        0.0278
     57 H          -3.2347    3.3402   -1.5678 H       1  LIG1        0.0591
     58 H          -3.2076    1.5802   -1.4357 H       1  LIG1        0.0591
     59 H           5.3948    4.6691    1.1575 H       1  LIG1        0.0655
     60 H           3.7029    1.9439    3.9930 H       1  LIG1        0.0619
     61 H           5.5618    3.4057    3.2494 H       1  LIG1        0.0619
     62 H           3.7406    6.1088   -1.7697 H       1  LIG1        0.0660
     63 H           5.1190    5.2509   -1.0719 H       1  LIG1        0.0660
     64 H           4.1325    6.3782   -0.0667 H       1  LIG1        0.0660
@<TRIPOS>BOND
     1     1     4    2
     2     1     5    2
     3     1     8    1
     4     1    21    1
     5     2    18    1
     6     2    24    1
     7     3    19    1
     8     3    29    1
     9     6    32    1
    10     6    41    1
    11     7    36    1
    12     8    17    1
    13     9    17   ar
    14     9    20   ar
    15    10    19   ar
    16    10    20   ar
    17    11    21   ar
    18    11    31   ar
    19    12    30   ar
    20    12    34   ar
    21    13    15   ar
    22    13    40   ar
    23    14    16   ar
    24    14    40   ar
    25    15    16   ar
    26    17    18   ar
    27    18    19   ar
    28    20    22    1
    29    21    23   ar
    30    22    25   ar
    31    22    28   ar
    32    23    27   ar
    33    24    32   ar
    34    24    33   ar
    35    25    30   ar
    36    26    27   ar
    37    26    31   ar
    38    26    35    1
    39    28    34   ar
    40    29    36    1
    41    30    40    1
    42    32    37   ar
    43    33    38   ar
    44    37    39   ar
    45    38    39   ar
    46     7    42    1
    47     8    43    1
    48    15    44    1
    49    23    45    1
    50    25    46    1
    51    27    47    1
    52    28    48    1
    53    29    49    1
    54    29    50    1
    55    31    51    1
    56    33    52    1
    57    34    53    1
    58    35    54    1
    59    35    55    1
    60    35    56    1
    61    36    57    1
    62    36    58    1
    63    37    59    1
    64    38    60    1
    65    39    61    1
    66    41    62    1
    67    41    63    1
    68    41    64    1
@<TRIPOS>MOLECULE
6433095
 64 68 0 0 0
SMALL
GASTEIGER

@<TRIPOS>ATOM
      1 S           3.4386    0.1186   -1.6225 S.O2    1  LIG1        0.0908
      2 O           1.3062    2.8440    0.0772 O.3     1  LIG1       -0.4435
      3 O          -1.5050    2.8170   -0.4192 O.3     1  LIG1       -0.4715
      4 O           3.6663   -1.3119   -1.6209 O.2     1  LIG1       -0.1484
      5 O           4.5668    1.0304   -1.7086 O.2     1  LIG1       -0.1484
      6 O           2.0341    5.3258   -0.4424 O.3     1  LIG1       -0.4914
      7 O          -4.0076    2.5365   -3.1056 O.3     1  LIG1       -0.3917
      8 N           2.6420    0.5113   -0.1831 N.pl3   1  LIG1       -0.1950
      9 N           0.6238   -0.6873   -0.3779 N.ar    1  LIG1       -0.2073
     10 N          -1.4529    0.4783   -0.4327 N.ar    1  LIG1       -0.1899
     11 N           1.7505    1.7179   -2.9537 N.ar    1  LIG1       -0.2351
     12 N          -2.9889   -4.2766   -0.1543 N.ar    1  LIG1       -0.2552
     13 N          -1.9479   -6.7239   -1.2040 N.ar    1  LIG1       -0.5621
     14 N          -0.3079   -5.6076   -2.2891 N.ar    1  LIG1       -0.1535
     15 N          -1.2008   -7.4935   -2.0014 N.ar    1  LIG1       -0.3597
     16 N          -0.2198   -6.8753   -2.6673 N.ar    1  LIG1       -0.0878
     17 C           1.2204    0.5060   -0.2138 C.ar    1  LIG1        0.1882
     18 C           0.5597    1.7146   -0.0964 C.ar    1  LIG1        0.2307
     19 C          -0.7931    1.6426   -0.3140 C.ar    1  LIG1        0.2641
     20 C          -0.7182   -0.6504   -0.4170 C.ar    1  LIG1        0.1659
     21 C           2.3341    0.4894   -2.9889 C.ar    1  LIG1        0.1969
     22 C          -1.4756   -1.9094   -0.3472 C.ar    1  LIG1        0.0227
     23 C           2.0900   -0.4731   -3.9556 C.ar    1  LIG1       -0.0160
     24 C           0.8895    3.8072    0.9694 C.ar    1  LIG1        0.1702
     25 C          -1.0065   -3.1107   -0.8977 C.ar    1  LIG1       -0.0252
     26 C           0.5720    1.0976   -4.9822 C.ar    1  LIG1       -0.0322
     27 C           1.1885   -0.1571   -4.9667 C.ar    1  LIG1       -0.0541
     28 C          -2.7225   -1.9385    0.3004 C.ar    1  LIG1       -0.0328
     29 C          -2.7968    2.6944   -1.0148 C.3     1  LIG1        0.1143
     30 C          -1.7885   -4.2630   -0.7930 C.ar    1  LIG1        0.0708
     31 C           0.8883    1.9898   -3.9588 C.ar    1  LIG1        0.0327
     32 C           1.2920    5.1219    0.6933 C.ar    1  LIG1        0.1621
     33 C           0.1714    3.5292    2.1383 C.ar    1  LIG1       -0.0157
     34 C          -3.4263   -3.1240    0.3781 C.ar    1  LIG1        0.0289
     35 C          -0.4235    1.4605   -6.0396 C.3     1  LIG1       -0.0383
     36 C          -2.7078    2.5158   -2.5293 C.3     1  LIG1        0.0783
     37 C           0.8856    6.1630    1.5305 C.ar    1  LIG1       -0.0163
     38 C          -0.2211    4.5725    2.9779 C.ar    1  LIG1       -0.0581
     39 C           0.1241    5.8871    2.6675 C.ar    1  LIG1       -0.0581
     40 C          -1.3617   -5.5252   -1.4022 C.ar    1  LIG1        0.0207
     41 C           3.1102    6.2449   -0.2763 C.3     1  LIG1        0.0790
     42 H          -3.9002    2.3735   -4.0582 H       1  LIG1        0.2095
     43 H           3.0235    1.4022    0.1392 H       1  LIG1        0.1754
     44 H          -1.3689   -8.4909   -2.0990 H       1  LIG1        0.1651
     45 H           2.5797   -1.4410   -3.9260 H       1  LIG1        0.0653
     46 H          -0.0469   -3.1409   -1.4083 H       1  LIG1        0.0646
     47 H           0.9742   -0.8922   -5.7393 H       1  LIG1        0.0622
     48 H          -3.1402   -1.0434    0.7540 H       1  LIG1        0.0640
     49 H          -3.3281    3.6306   -0.8058 H       1  LIG1        0.0720
     50 H          -3.4048    1.9137   -0.5405 H       1  LIG1        0.0720
     51 H           0.4371    2.9790   -3.9167 H       1  LIG1        0.0833
     52 H          -0.1016    2.5134    2.4078 H       1  LIG1        0.0655
     53 H          -4.3863   -3.1769    0.8838 H       1  LIG1        0.0830
     54 H          -0.4030    0.7443   -6.8682 H       1  LIG1        0.0278
     55 H          -0.2012    2.4488   -6.4544 H       1  LIG1        0.0278
     56 H          -1.4343    1.4659   -5.6192 H       1  LIG1        0.0278
     57 H          -2.1107    3.3204   -2.9717 H       1  LIG1        0.0591
     58 H          -2.2268    1.5681   -2.7906 H       1  LIG1        0.0591
     59 H           1.1349    7.1940    1.3017 H       1  LIG1        0.0655
     60 H          -0.8046    4.3604    3.8705 H       1  LIG1        0.0619
     61 H          -0.2001    6.6999    3.3128 H       1  LIG1        0.0619
     62 H           3.8340    6.0603   -1.0761 H       1  LIG1        0.0660
     63 H           3.6273    6.1046    0.6800 H       1  LIG1        0.0660
     64 H           2.7525    7.2739   -0.3772 H       1  LIG1        0.0660
@<TRIPOS>BOND
     1     1     4    2
     2     1     5    2
     3     1     8    1
     4     1    21    1
     5     2    18    1
     6     2    24    1
     7     3    19    1
     8     3    29    1
     9     6    32    1
    10     6    41    1
    11     7    36    1
    12     8    17    1
    13     9    17   ar
    14     9    20   ar
    15    10    19   ar
    16    10    20   ar
    17    11    21   ar
    18    11    31   ar
    19    12    30   ar
    20    12    34   ar
    21    13    15   ar
    22    13    40   ar
    23    14    16   ar
    24    14    40   ar
    25    15    16   ar
    26    17    18   ar
    27    18    19   ar
    28    20    22    1
    29    21    23   ar
    30    22    25   ar
    31    22    28   ar
    32    23    27   ar
    33    24    32   ar
    34    24    33   ar
    35    25    30   ar
    36    26    27   ar
    37    26    31   ar
    38    26    35    1
    39    28    34   ar
    40    29    36    1
    41    30    40    1
    42    32    37   ar
    43    33    38   ar
    44    37    39   ar
    45    38    39   ar
    46     7    42    1
    47     8    43    1
    48    15    44    1
    49    23    45    1
    50    25    46    1
    51    27    47    1
    52    28    48    1
    53    29    49    1
    54    29    50    1
    55    31    51    1
    56    33    52    1
    57    34    53    1
    58    35    54    1
    59    35    55    1
    60    35    56    1
    61    36    57    1
    62    36    58    1
    63    37    59    1
    64    38    60    1
    65    39    61    1
    66    41    62    1
    67    41    63    1
    68    41    64    1
@<TRIPOS>MOLECULE
6433095
 64 68 0 0 0
SMALL
GASTEIGER

@<TRIPOS>ATOM
      1 S           3.4051    0.1703   -1.6593 S.O2    1  LIG1        0.0908
      2 O           1.3451    2.8271    0.0822 O.3     1  LIG1       -0.4435
      3 O          -1.4673    2.8381   -0.3625 O.3     1  LIG1       -0.4715
      4 O           3.6361   -1.2554   -1.7670 O.2     1  LIG1       -0.1484
      5 O           4.5293    1.0898   -1.7010 O.2     1  LIG1       -0.1484
      6 O           2.0645    5.3145   -0.4476 O.3     1  LIG1       -0.4914
      7 O          -4.5178    4.1662   -1.8290 O.3     1  LIG1       -0.3917
      8 N           2.6451    0.4616   -0.1722 N.pl3   1  LIG1       -0.1950
      9 N           0.6048   -0.6944   -0.3460 N.ar    1  LIG1       -0.2073
     10 N          -1.4550    0.5011   -0.4123 N.ar    1  LIG1       -0.1899
     11 N           2.2057    1.9427   -3.2752 N.ar    1  LIG1       -0.2351
     12 N          -3.0300   -4.2514   -0.0999 N.ar    1  LIG1       -0.2552
     13 N          -1.9878   -6.7108   -1.1392 N.ar    1  LIG1       -0.5621
     14 N          -0.3980   -5.5855   -2.2881 N.ar    1  LIG1       -0.1535
     15 N          -1.2642   -7.4774   -1.9614 N.ar    1  LIG1       -0.3597
     16 N          -0.3129   -6.8538   -2.6643 N.ar    1  LIG1       -0.0878
     17 C           1.2237    0.4885   -0.1890 C.ar    1  LIG1        0.1882
     18 C           0.5851    1.7080   -0.0988 C.ar    1  LIG1        0.2307
     19 C          -0.7708    1.6537   -0.3103 C.ar    1  LIG1        0.2641
     20 C          -0.7380   -0.6383   -0.3880 C.ar    1  LIG1        0.1659
     21 C           2.2333    0.6260   -2.9437 C.ar    1  LIG1        0.1969
     22 C          -1.5067   -1.8906   -0.3104 C.ar    1  LIG1        0.0227
     23 C           1.4480   -0.3544   -3.5319 C.ar    1  LIG1       -0.0160
     24 C           0.9233    3.7964    0.9673 C.ar    1  LIG1        0.1702
     25 C          -1.0489   -3.0966   -0.8613 C.ar    1  LIG1       -0.0252
     26 C           0.5153    1.3781   -4.9253 C.ar    1  LIG1       -0.0322
     27 C           0.5661    0.0379   -4.5320 C.ar    1  LIG1       -0.0541
     28 C          -2.7485   -1.9115    0.3461 C.ar    1  LIG1       -0.0328
     29 C          -2.7185    2.7517   -1.0381 C.3     1  LIG1        0.1143
     30 C          -1.8357   -4.2451   -0.7490 C.ar    1  LIG1        0.0708
     31 C           1.3601    2.2789   -4.2768 C.ar    1  LIG1        0.0327
     32 C           1.3164    5.1115    0.6836 C.ar    1  LIG1        0.1621
     33 C           0.1965    3.5228    2.1327 C.ar    1  LIG1       -0.0157
     34 C          -3.4569   -3.0944    0.4328 C.ar    1  LIG1        0.0289
     35 C          -0.3631    1.8164   -6.0560 C.3     1  LIG1       -0.0383
     36 C          -3.2814    4.1650   -1.1299 C.3     1  LIG1        0.0783
     37 C           0.8906    6.1564    1.5064 C.ar    1  LIG1       -0.0163
     38 C          -0.2191    4.5701    2.9558 C.ar    1  LIG1       -0.0581
     39 C           0.1163    5.8847    2.6360 C.ar    1  LIG1       -0.0581
     40 C          -1.4202   -5.5081   -1.3644 C.ar    1  LIG1        0.0207
     41 C           3.1424    6.2300   -0.2723 C.3     1  LIG1        0.0790
     42 H          -4.8230    5.0897   -1.8565 H       1  LIG1        0.2095
     43 H           3.0520    1.3214    0.2012 H       1  LIG1        0.1754
     44 H          -1.4274   -8.4766   -2.0501 H       1  LIG1        0.1651
     45 H           1.5113   -1.3904   -3.2156 H       1  LIG1        0.0653
     46 H          -0.0929   -3.1350   -1.3778 H       1  LIG1        0.0646
     47 H          -0.0674   -0.7063   -5.0092 H       1  LIG1        0.0622
     48 H          -3.1579   -1.0132    0.8006 H       1  LIG1        0.0640
     49 H          -3.4216    2.1151   -0.4871 H       1  LIG1        0.0720
     50 H          -2.5902    2.3415   -2.0482 H       1  LIG1        0.0720
     51 H           1.3853    3.3285   -4.5632 H       1  LIG1        0.0833
     52 H          -0.0714    2.5070    2.4080 H       1  LIG1        0.0655
     53 H          -4.4131   -3.1419    0.9464 H       1  LIG1        0.0830
     54 H          -1.1717    1.0977   -6.2291 H       1  LIG1        0.0278
     55 H           0.2240    1.9013   -6.9760 H       1  LIG1        0.0278
     56 H          -0.8273    2.7831   -5.8365 H       1  LIG1        0.0278
     57 H          -3.4371    4.5759   -0.1262 H       1  LIG1        0.0591
     58 H          -2.5758    4.8235   -1.6486 H       1  LIG1        0.0591
     59 H           1.1345    7.1873    1.2708 H       1  LIG1        0.0655
     60 H          -0.8131    4.3606    3.8423 H       1  LIG1        0.0619
     61 H          -0.2240    6.7007    3.2688 H       1  LIG1        0.0619
     62 H           3.8708    6.0462   -1.0679 H       1  LIG1        0.0660
     63 H           3.6527    6.0861    0.6873 H       1  LIG1        0.0660
     64 H           2.7877    7.2602   -0.3721 H       1  LIG1        0.0660
@<TRIPOS>BOND
     1     1     4    2
     2     1     5    2
     3     1     8    1
     4     1    21    1
     5     2    18    1
     6     2    24    1
     7     3    19    1
     8     3    29    1
     9     6    32    1
    10     6    41    1
    11     7    36    1
    12     8    17    1
    13     9    17   ar
    14     9    20   ar
    15    10    19   ar
    16    10    20   ar
    17    11    21   ar
    18    11    31   ar
    19    12    30   ar
    20    12    34   ar
    21    13    15   ar
    22    13    40   ar
    23    14    16   ar
    24    14    40   ar
    25    15    16   ar
    26    17    18   ar
    27    18    19   ar
    28    20    22    1
    29    21    23   ar
    30    22    25   ar
    31    22    28   ar
    32    23    27   ar
    33    24    32   ar
    34    24    33   ar
    35    25    30   ar
    36    26    27   ar
    37    26    31   ar
    38    26    35    1
    39    28    34   ar
    40    29    36    1
    41    30    40    1
    42    32    37   ar
    43    33    38   ar
    44    37    39   ar
    45    38    39   ar
    46     7    42    1
    47     8    43    1
    48    15    44    1
    49    23    45    1
    50    25    46    1
    51    27    47    1
    52    28    48    1
    53    29    49    1
    54    29    50    1
    55    31    51    1
    56    33    52    1
    57    34    53    1
    58    35    54    1
    59    35    55    1
    60    35    56    1
    61    36    57    1
    62    36    58    1
    63    37    59    1
    64    38    60    1
    65    39    61    1
    66    41    62    1
    67    41    63    1
    68    41    64    1
@<TRIPOS>MOLECULE
6433095
 64 68 0 0 0
SMALL
GASTEIGER

@<TRIPOS>ATOM
      1 S           3.5889    0.2562    0.9030 S.O2    1  LIG1        0.0908
      2 O           1.3647    2.6991    0.0495 O.3     1  LIG1       -0.4435
      3 O          -1.4843    2.7429   -0.0511 O.3     1  LIG1       -0.4715
      4 O           4.1337    1.6040    0.8837 O.2     1  LIG1       -0.1484
      5 O           4.4983   -0.8691    0.8336 O.2     1  LIG1       -0.1484
      6 O           2.0829    5.1855   -0.5356 O.3     1  LIG1       -0.4914
      7 O          -3.6309    3.5336   -1.9854 O.3     1  LIG1       -0.3917
      8 N           2.5791    0.2065   -0.4590 N.pl3   1  LIG1       -0.1950
      9 N           0.5126   -0.8086   -0.3370 N.ar    1  LIG1       -0.2073
     10 N          -1.5107    0.4051   -0.0678 N.ar    1  LIG1       -0.1899
     11 N           1.7686   -0.9385    2.4470 N.ar    1  LIG1       -0.2351
     12 N          -3.0939   -4.3691   -0.0867 N.ar    1  LIG1       -0.2552
     13 N          -2.0156   -6.7747   -1.2204 N.ar    1  LIG1       -0.5621
     14 N          -0.2903   -5.6246   -2.1228 N.ar    1  LIG1       -0.1535
     15 N          -1.2074   -7.5145   -1.9870 N.ar    1  LIG1       -0.3597
     16 N          -0.1737   -6.8758   -2.5438 N.ar    1  LIG1       -0.0878
     17 C           1.1757    0.3539   -0.2493 C.ar    1  LIG1        0.1882
     18 C           0.5803    1.5829   -0.0370 C.ar    1  LIG1        0.2307
     19 C          -0.7983    1.5468   -0.0324 C.ar    1  LIG1        0.2641
     20 C          -0.8162   -0.7395   -0.1937 C.ar    1  LIG1        0.1659
     21 C           2.6269    0.1113    2.4038 C.ar    1  LIG1        0.1969
     22 C          -1.5870   -1.9910   -0.1629 C.ar    1  LIG1        0.0227
     23 C           2.8104    1.0193    3.4360 C.ar    1  LIG1       -0.0160
     24 C           1.0532    3.6775    0.9757 C.ar    1  LIG1        0.1702
     25 C          -1.1011   -3.1760   -0.7368 C.ar    1  LIG1       -0.0252
     26 C           1.1836   -0.2449    4.6919 C.ar    1  LIG1       -0.0322
     27 C           2.0691    0.8327    4.5992 C.ar    1  LIG1       -0.0541
     28 C          -2.8485   -2.0409    0.4493 C.ar    1  LIG1       -0.0328
     29 C          -2.8989    2.6513    0.1507 C.3     1  LIG1        0.1143
     30 C          -1.8761   -4.3337   -0.6899 C.ar    1  LIG1        0.0708
     31 C           1.0770   -1.0958    3.5944 C.ar    1  LIG1        0.0327
     32 C           1.4334    4.9893    0.6572 C.ar    1  LIG1        0.1621
     33 C           0.4395    3.4163    2.2090 C.ar    1  LIG1       -0.0157
     34 C          -3.5496   -3.2317    0.4665 C.ar    1  LIG1        0.0289
     35 C           0.3922   -0.5073    5.9342 C.3     1  LIG1       -0.0383
     36 C          -3.6463    2.3740   -1.1542 C.3     1  LIG1        0.0783
     37 C           1.0967    6.0384    1.5188 C.ar    1  LIG1       -0.0163
     38 C           0.1231    4.4656    3.0730 C.ar    1  LIG1       -0.0581
     39 C           0.4372    5.7759    2.7211 C.ar    1  LIG1       -0.0581
     40 C          -1.4126   -5.5722   -1.3209 C.ar    1  LIG1        0.0207
     41 C           3.1385    6.1410   -0.4709 C.3     1  LIG1        0.0790
     42 H          -4.0032    3.2727   -2.8451 H       1  LIG1        0.2095
     43 H           2.8978    0.9955   -1.0253 H       1  LIG1        0.1754
     44 H          -1.3680   -8.5059   -2.1405 H       1  LIG1        0.1651
     45 H           3.5139    1.8416    3.3508 H       1  LIG1        0.0653
     46 H          -0.1276   -3.1867   -1.2231 H       1  LIG1        0.0646
     47 H           2.1964    1.5215    5.4315 H       1  LIG1        0.0622
     48 H          -3.2806   -1.1612    0.9177 H       1  LIG1        0.0640
     49 H          -3.2094    3.6271    0.5412 H       1  LIG1        0.0720
     50 H          -3.1430    1.9116    0.9229 H       1  LIG1        0.0720
     51 H           0.4161   -1.9596    3.6122 H       1  LIG1        0.0833
     52 H           0.1775    2.4063    2.5081 H       1  LIG1        0.0655
     53 H          -4.5244   -3.3034    0.9402 H       1  LIG1        0.0830
     54 H           0.5391    0.2837    6.6771 H       1  LIG1        0.0278
     55 H           0.7019   -1.4557    6.3849 H       1  LIG1        0.0278
     56 H          -0.6763   -0.5515    5.7006 H       1  LIG1        0.0278
     57 H          -3.1973    1.5521   -1.7181 H       1  LIG1        0.0591
     58 H          -4.6924    2.1353   -0.9399 H       1  LIG1        0.0591
     59 H           1.3192    7.0687    1.2599 H       1  LIG1        0.0655
     60 H          -0.3838    4.2618    4.0128 H       1  LIG1        0.0619
     61 H           0.1666    6.5965    3.3812 H       1  LIG1        0.0619
     62 H           3.7989    5.9689   -1.3260 H       1  LIG1        0.0660
     63 H           3.7373    6.0295    0.4406 H       1  LIG1        0.0660
     64 H           2.7419    7.1577   -0.5529 H       1  LIG1        0.0660
@<TRIPOS>BOND
     1     1     4    2
     2     1     5    2
     3     1     8    1
     4     1    21    1
     5     2    18    1
     6     2    24    1
     7     3    19    1
     8     3    29    1
     9     6    32    1
    10     6    41    1
    11     7    36    1
    12     8    17    1
    13     9    17   ar
    14     9    20   ar
    15    10    19   ar
    16    10    20   ar
    17    11    21   ar
    18    11    31   ar
    19    12    30   ar
    20    12    34   ar
    21    13    15   ar
    22    13    40   ar
    23    14    16   ar
    24    14    40   ar
    25    15    16   ar
    26    17    18   ar
    27    18    19   ar
    28    20    22    1
    29    21    23   ar
    30    22    25   ar
    31    22    28   ar
    32    23    27   ar
    33    24    32   ar
    34    24    33   ar
    35    25    30   ar
    36    26    27   ar
    37    26    31   ar
    38    26    35    1
    39    28    34   ar
    40    29    36    1
    41    30    40    1
    42    32    37   ar
    43    33    38   ar
    44    37    39   ar
    45    38    39   ar
    46     7    42    1
    47     8    43    1
    48    15    44    1
    49    23    45    1
    50    25    46    1
    51    27    47    1
    52    28    48    1
    53    29    49    1
    54    29    50    1
    55    31    51    1
    56    33    52    1
    57    34    53    1
    58    35    54    1
    59    35    55    1
    60    35    56    1
    61    36    57    1
    62    36    58    1
    63    37    59    1
    64    38    60    1
    65    39    61    1
    66    41    62    1
    67    41    63    1
    68    41    64    1
@<TRIPOS>MOLECULE
6433095
 64 68 0 0 0
SMALL
GASTEIGER

@<TRIPOS>ATOM
      1 S           3.6132    0.2208    0.9134 S.O2    1  LIG1        0.0908
      2 O           1.4132    2.6885    0.0907 O.3     1  LIG1       -0.4435
      3 O          -1.4444    2.7519   -0.1226 O.3     1  LIG1       -0.4715
      4 O           4.2047    1.5488    0.9038 O.2     1  LIG1       -0.1484
      5 O           4.4828   -0.9363    0.8510 O.2     1  LIG1       -0.1484
      6 O           2.1596    5.1668   -0.4709 O.3     1  LIG1       -0.4914
      7 O          -1.8084    4.2848   -2.6213 O.3     1  LIG1       -0.3917
      8 N           2.6214    0.2118   -0.4610 N.pl3   1  LIG1       -0.1950
      9 N           0.5489   -0.8013   -0.4001 N.ar    1  LIG1       -0.2073
     10 N          -1.4738    0.4289   -0.2336 N.ar    1  LIG1       -0.1899
     11 N           1.7678   -0.9467    2.4439 N.ar    1  LIG1       -0.2351
     12 N          -3.0797   -4.3360   -0.1103 N.ar    1  LIG1       -0.2552
     13 N          -2.0191   -6.7728   -1.1928 N.ar    1  LIG1       -0.5621
     14 N          -0.3341   -5.6409   -2.1895 N.ar    1  LIG1       -0.1535
     15 N          -1.2383   -7.5294   -1.9708 N.ar    1  LIG1       -0.3597
     16 N          -0.2296   -6.9019   -2.5835 N.ar    1  LIG1       -0.0878
     17 C           1.2158    0.3562   -0.2706 C.ar    1  LIG1        0.1882
     18 C           0.6225    1.5859   -0.0579 C.ar    1  LIG1        0.2307
     19 C          -0.7537    1.5618   -0.1517 C.ar    1  LIG1        0.2641
     20 C          -0.7856   -0.7221   -0.3101 C.ar    1  LIG1        0.1659
     21 C           2.6250    0.1042    2.3982 C.ar    1  LIG1        0.1969
     22 C          -1.5626   -1.9679   -0.2574 C.ar    1  LIG1        0.0227
     23 C           2.8001    1.0223    3.4229 C.ar    1  LIG1       -0.0160
     24 C           1.0497    3.6712    0.9909 C.ar    1  LIG1        0.1702
     25 C          -1.0903   -3.1660   -0.8139 C.ar    1  LIG1       -0.0252
     26 C           1.1739   -0.2389    4.6820 C.ar    1  LIG1       -0.0322
     27 C           2.0543    0.8425    4.5838 C.ar    1  LIG1       -0.0541
     28 C          -2.8158   -1.9987    0.3731 C.ar    1  LIG1       -0.0328
     29 C          -2.6361    2.7740   -0.9196 C.3     1  LIG1        0.1143
     30 C          -1.8709   -4.3184   -0.7324 C.ar    1  LIG1        0.0708
     31 C           1.0714   -1.0968    3.5894 C.ar    1  LIG1        0.0327
     32 C           1.4441    4.9821    0.6855 C.ar    1  LIG1        0.1621
     33 C           0.3722    3.4126    2.1905 C.ar    1  LIG1       -0.0157
     34 C          -3.5215   -3.1856    0.4271 C.ar    1  LIG1        0.0289
     35 C           0.3829   -0.4971    5.9254 C.3     1  LIG1       -0.0383
     36 C          -2.3109    2.9682   -2.4020 C.3     1  LIG1        0.0783
     37 C           1.0590    6.0337    1.5232 C.ar    1  LIG1       -0.0163
     38 C           0.0058    4.4653    3.0303 C.ar    1  LIG1       -0.0581
     39 C           0.3352    5.7747    2.6891 C.ar    1  LIG1       -0.0581
     40 C          -1.4251   -5.5716   -1.3466 C.ar    1  LIG1        0.0207
     41 C           3.1651    6.1726   -0.3867 C.3     1  LIG1        0.0790
     42 H          -1.4920    4.3265   -3.5396 H       1  LIG1        0.2095
     43 H           2.9534    1.0131   -1.0020 H       1  LIG1        0.1754
     44 H          -1.4007   -8.5249   -2.0925 H       1  LIG1        0.1651
     45 H           3.5041    1.8438    3.3359 H       1  LIG1        0.0653
     46 H          -0.1226   -3.1919   -1.3106 H       1  LIG1        0.0646
     47 H           2.1765    1.5375    5.4115 H       1  LIG1        0.0622
     48 H          -3.2355   -1.1074    0.8314 H       1  LIG1        0.0640
     49 H          -3.2186    3.6320   -0.5653 H       1  LIG1        0.0720
     50 H          -3.2556    1.8845   -0.7592 H       1  LIG1        0.0720
     51 H           0.4125   -1.9617    3.6111 H       1  LIG1        0.0833
     52 H           0.0949    2.4027    2.4771 H       1  LIG1        0.0655
     53 H          -4.4889   -3.2427    0.9179 H       1  LIG1        0.0830
     54 H           0.5395    0.2899    6.6702 H       1  LIG1        0.0278
     55 H           0.6855   -1.4493    6.3730 H       1  LIG1        0.0278
     56 H          -0.6864   -0.5314    5.6942 H       1  LIG1        0.0278
     57 H          -1.5544    2.2559   -2.7445 H       1  LIG1        0.0591
     58 H          -3.2157    2.8518   -3.0054 H       1  LIG1        0.0591
     59 H           1.2912    7.0639    1.2736 H       1  LIG1        0.0655
     60 H          -0.5538    4.2646    3.9401 H       1  LIG1        0.0619
     61 H           0.0253    6.5975    3.3284 H       1  LIG1        0.0619
     62 H           3.8752    6.0047   -1.2017 H       1  LIG1        0.0660
     63 H           3.7214    6.1172    0.5561 H       1  LIG1        0.0660
     64 H           2.7274    7.1665   -0.5229 H       1  LIG1        0.0660
@<TRIPOS>BOND
     1     1     4    2
     2     1     5    2
     3     1     8    1
     4     1    21    1
     5     2    18    1
     6     2    24    1
     7     3    19    1
     8     3    29    1
     9     6    32    1
    10     6    41    1
    11     7    36    1
    12     8    17    1
    13     9    17   ar
    14     9    20   ar
    15    10    19   ar
    16    10    20   ar
    17    11    21   ar
    18    11    31   ar
    19    12    30   ar
    20    12    34   ar
    21    13    15   ar
    22    13    40   ar
    23    14    16   ar
    24    14    40   ar
    25    15    16   ar
    26    17    18   ar
    27    18    19   ar
    28    20    22    1
    29    21    23   ar
    30    22    25   ar
    31    22    28   ar
    32    23    27   ar
    33    24    32   ar
    34    24    33   ar
    35    25    30   ar
    36    26    27   ar
    37    26    31   ar
    38    26    35    1
    39    28    34   ar
    40    29    36    1
    41    30    40    1
    42    32    37   ar
    43    33    38   ar
    44    37    39   ar
    45    38    39   ar
    46     7    42    1
    47     8    43    1
    48    15    44    1
    49    23    45    1
    50    25    46    1
    51    27    47    1
    52    28    48    1
    53    29    49    1
    54    29    50    1
    55    31    51    1
    56    33    52    1
    57    34    53    1
    58    35    54    1
    59    35    55    1
    60    35    56    1
    61    36    57    1
    62    36    58    1
    63    37    59    1
    64    38    60    1
    65    39    61    1
    66    41    62    1
    67    41    63    1
    68    41    64    1
@<TRIPOS>MOLECULE
6433095
 64 68 0 0 0
SMALL
GASTEIGER

@<TRIPOS>ATOM
      1 S           3.5783    0.2614    0.8963 S.O2    1  LIG1        0.0908
      2 O           1.3267    2.6867    0.0282 O.3     1  LIG1       -0.4435
      3 O          -1.5401    2.6828   -0.0349 O.3     1  LIG1       -0.4715
      4 O           4.1050    1.6171    0.8704 O.2     1  LIG1       -0.1484
      5 O           4.5034   -0.8509    0.8268 O.2     1  LIG1       -0.1484
      6 O           2.0216    5.1887   -0.5645 O.3     1  LIG1       -0.4914
      7 O          -1.3649    2.1098   -2.9997 O.3     1  LIG1       -0.3917
      8 N           2.5653    0.1941   -0.4612 N.pl3   1  LIG1       -0.1950
      9 N           0.5063   -0.8354   -0.3320 N.ar    1  LIG1       -0.2073
     10 N          -1.5246    0.3656   -0.0644 N.ar    1  LIG1       -0.1899
     11 N           1.7878   -0.9588    2.4536 N.ar    1  LIG1       -0.2351
     12 N          -3.1252   -4.3902   -0.2085 N.ar    1  LIG1       -0.2552
     13 N          -2.1695   -6.6890   -1.6254 N.ar    1  LIG1       -0.5621
     14 N          -0.1765   -5.6911   -2.0065 N.ar    1  LIG1       -0.1535
     15 N          -1.2995   -7.4467   -2.3006 N.ar    1  LIG1       -0.3597
     16 N          -0.1058   -6.8990   -2.5475 N.ar    1  LIG1       -0.0878
     17 C           1.1612    0.3343   -0.2490 C.ar    1  LIG1        0.1882
     18 C           0.5580    1.5611   -0.0491 C.ar    1  LIG1        0.2307
     19 C          -0.8195    1.5101   -0.0725 C.ar    1  LIG1        0.2641
     20 C          -0.8248   -0.7732   -0.1933 C.ar    1  LIG1        0.1659
     21 C           2.6225    0.1088    2.3998 C.ar    1  LIG1        0.1969
     22 C          -1.5936   -2.0263   -0.1868 C.ar    1  LIG1        0.0227
     23 C           2.7863    1.0311    3.4227 C.ar    1  LIG1       -0.0160
     24 C           1.0066    3.6662    0.9493 C.ar    1  LIG1        0.1702
     25 C          -1.1018   -3.2028   -0.7723 C.ar    1  LIG1       -0.0252
     26 C           1.1835   -0.2521    4.6894 C.ar    1  LIG1       -0.0322
     27 C           2.0475    0.8420    4.5868 C.ar    1  LIG1       -0.0541
     28 C          -2.8693   -2.0797    0.3945 C.ar    1  LIG1       -0.0328
     29 C          -2.6062    2.7158   -0.9943 C.3     1  LIG1        0.1143
     30 C          -1.8920   -4.3512   -0.7801 C.ar    1  LIG1        0.0708
     31 C           1.0949   -1.1159    3.6003 C.ar    1  LIG1        0.0327
     32 C           1.3809    4.9797    0.6313 C.ar    1  LIG1        0.1621
     33 C           0.3926    3.4057    2.1821 C.ar    1  LIG1       -0.0157
     34 C          -3.5817   -3.2631    0.3655 C.ar    1  LIG1        0.0289
     35 C           0.3895   -0.5130    5.9304 C.3     1  LIG1       -0.0383
     36 C          -2.0967    3.1578   -2.3678 C.3     1  LIG1        0.0783
     37 C           1.0453    6.0292    1.4933 C.ar    1  LIG1       -0.0163
     38 C           0.0758    4.4550    3.0468 C.ar    1  LIG1       -0.0581
     39 C           0.3893    5.7659    2.6966 C.ar    1  LIG1       -0.0581
     40 C          -1.4334   -5.5724   -1.4479 C.ar    1  LIG1        0.0207
     41 C           3.1311    6.0798   -0.4634 C.3     1  LIG1        0.0790
     42 H          -1.0710    2.4476   -3.8635 H       1  LIG1        0.2095
     43 H           2.8736    0.9801   -1.0365 H       1  LIG1        0.1754
     44 H          -1.5321   -8.3844   -2.6147 H       1  LIG1        0.1651
     45 H           3.4724    1.8668    3.3291 H       1  LIG1        0.0653
     46 H          -0.1194   -3.2079   -1.2400 H       1  LIG1        0.0646
     47 H           2.1585    1.5426    5.4113 H       1  LIG1        0.0622
     48 H          -3.3071   -1.2039    0.8657 H       1  LIG1        0.0640
     49 H          -3.3138    3.4683   -0.6293 H       1  LIG1        0.0720
     50 H          -3.1530    1.7676   -1.0532 H       1  LIG1        0.0720
     51 H           0.4479   -1.9899    3.6243 H       1  LIG1        0.0833
     52 H           0.1281    2.3956    2.4805 H       1  LIG1        0.0655
     53 H          -4.5701   -3.3344    0.8102 H       1  LIG1        0.0830
     54 H           0.5464    0.2712    6.6783 H       1  LIG1        0.0278
     55 H           0.6886   -1.4673    6.3757 H       1  LIG1        0.0278
     56 H          -0.6794   -0.5437    5.6965 H       1  LIG1        0.0278
     57 H          -2.9422    3.4117   -3.0145 H       1  LIG1        0.0591
     58 H          -1.4345    4.0242   -2.2752 H       1  LIG1        0.0591
     59 H           1.2695    7.0590    1.2334 H       1  LIG1        0.0655
     60 H          -0.4312    4.2489    3.9862 H       1  LIG1        0.0619
     61 H           0.1208    6.5848    3.3594 H       1  LIG1        0.0619
     62 H           3.7862    5.8984   -1.3207 H       1  LIG1        0.0660
     63 H           3.7168    5.9074    0.4473 H       1  LIG1        0.0660
     64 H           2.7924    7.1194   -0.5140 H       1  LIG1        0.0660
@<TRIPOS>BOND
     1     1     4    2
     2     1     5    2
     3     1     8    1
     4     1    21    1
     5     2    18    1
     6     2    24    1
     7     3    19    1
     8     3    29    1
     9     6    32    1
    10     6    41    1
    11     7    36    1
    12     8    17    1
    13     9    17   ar
    14     9    20   ar
    15    10    19   ar
    16    10    20   ar
    17    11    21   ar
    18    11    31   ar
    19    12    30   ar
    20    12    34   ar
    21    13    15   ar
    22    13    40   ar
    23    14    16   ar
    24    14    40   ar
    25    15    16   ar
    26    17    18   ar
    27    18    19   ar
    28    20    22    1
    29    21    23   ar
    30    22    25   ar
    31    22    28   ar
    32    23    27   ar
    33    24    32   ar
    34    24    33   ar
    35    25    30   ar
    36    26    27   ar
    37    26    31   ar
    38    26    35    1
    39    28    34   ar
    40    29    36    1
    41    30    40    1
    42    32    37   ar
    43    33    38   ar
    44    37    39   ar
    45    38    39   ar
    46     7    42    1
    47     8    43    1
    48    15    44    1
    49    23    45    1
    50    25    46    1
    51    27    47    1
    52    28    48    1
    53    29    49    1
    54    29    50    1
    55    31    51    1
    56    33    52    1
    57    34    53    1
    58    35    54    1
    59    35    55    1
    60    35    56    1
    61    36    57    1
    62    36    58    1
    63    37    59    1
    64    38    60    1
    65    39    61    1
    66    41    62    1
    67    41    63    1
    68    41    64    1
@<TRIPOS>MOLECULE
6433095
 64 68 0 0 0
SMALL
GASTEIGER

@<TRIPOS>ATOM
      1 S           3.4570    0.1058    1.1451 S.O2    1  LIG1        0.0908
      2 O           1.3734    2.8442   -0.0445 O.3     1  LIG1       -0.4435
      3 O          -1.4671    2.7991   -0.2883 O.3     1  LIG1       -0.4715
      4 O           2.7747   -0.9577    1.8569 O.2     1  LIG1       -0.1484
      5 O           3.6979    1.3875    1.7732 O.2     1  LIG1       -0.1484
      6 O           2.0545    5.3615   -0.5623 O.3     1  LIG1       -0.4914
      7 O          -1.9735    4.2587   -2.7913 O.3     1  LIG1       -0.3917
      8 N           2.6840    0.3943   -0.3345 N.pl3   1  LIG1       -0.1950
      9 N           0.6482   -0.6980   -0.2898 N.ar    1  LIG1       -0.2073
     10 N          -1.4213    0.4647   -0.3321 N.ar    1  LIG1       -0.1899
     11 N           5.5666    0.1321   -0.4702 N.ar    1  LIG1       -0.2351
     12 N          -2.8043   -4.3860    0.0160 N.ar    1  LIG1       -0.2552
     13 N          -5.5729   -4.5163   -0.7750 N.ar    1  LIG1       -0.5621
     14 N          -5.5763   -2.3096   -1.2683 N.ar    1  LIG1       -0.1535
     15 N          -6.7479   -4.0574   -1.2192 N.ar    1  LIG1       -0.3597
     16 N          -6.7969   -2.7565   -1.5249 N.ar    1  LIG1       -0.0878
     17 C           1.2690    0.4898   -0.2426 C.ar    1  LIG1        0.1882
     18 C           0.6286    1.7048   -0.1391 C.ar    1  LIG1        0.2307
     19 C          -0.7429    1.6280   -0.2687 C.ar    1  LIG1        0.2641
     20 C          -0.6915   -0.6629   -0.2883 C.ar    1  LIG1        0.1659
     21 C           5.0323   -0.5421    0.5871 C.ar    1  LIG1        0.1969
     22 C          -1.4127   -1.9424   -0.2008 C.ar    1  LIG1        0.0227
     23 C           5.5626   -1.6912    1.1506 C.ar    1  LIG1       -0.0160
     24 C           1.0214    3.7959    0.8929 C.ar    1  LIG1        0.1702
     25 C          -2.7690   -2.0449   -0.5496 C.ar    1  LIG1       -0.0252
     26 C           7.3317   -1.5328   -0.4858 C.ar    1  LIG1       -0.0322
     27 C           6.7415   -2.1871    0.6010 C.ar    1  LIG1       -0.0541
     28 C          -0.7805   -3.1042    0.2624 C.ar    1  LIG1       -0.0328
     29 C          -2.6869    2.7489   -1.0384 C.3     1  LIG1        0.1143
     30 C          -3.4276   -3.2676   -0.4355 C.ar    1  LIG1        0.0708
     31 C           6.7102   -0.3830   -0.9713 C.ar    1  LIG1        0.0327
     32 C           1.3779    5.1214    0.6082 C.ar    1  LIG1        0.1621
     33 C           0.3938    3.4964    2.1095 C.ar    1  LIG1       -0.0157
     34 C          -1.5052   -4.2793    0.3563 C.ar    1  LIG1        0.0289
     35 C           8.5951   -2.0360   -1.1111 C.3     1  LIG1       -0.0383
     36 C          -2.4137    2.9266   -2.5324 C.3     1  LIG1        0.0783
     37 C           0.9998    6.1478    1.4795 C.ar    1  LIG1       -0.0163
     38 C           0.0346    4.5234    2.9845 C.ar    1  LIG1       -0.0581
     39 C           0.3226    5.8479    2.6625 C.ar    1  LIG1       -0.0581
     40 C          -4.8392   -3.3858   -0.8120 C.ar    1  LIG1        0.0207
     41 C           3.1518    6.2577   -0.4030 C.3     1  LIG1        0.0790
     42 H          -1.6497    4.2860   -3.7072 H       1  LIG1        0.2095
     43 H           3.0881    1.2644   -0.6900 H       1  LIG1        0.1754
     44 H          -7.5587   -4.6610   -1.3221 H       1  LIG1        0.1651
     45 H           5.0738   -2.1944    1.9786 H       1  LIG1        0.0653
     46 H          -3.3051   -1.1700   -0.9094 H       1  LIG1        0.0646
     47 H           7.1871   -3.0891    1.0147 H       1  LIG1        0.0622
     48 H           0.2640   -3.0922    0.5650 H       1  LIG1        0.0640
     49 H          -3.2955    3.5874   -0.6816 H       1  LIG1        0.0720
     50 H          -3.2604    1.8364   -0.8416 H       1  LIG1        0.0720
     51 H           7.1280    0.1652   -1.8128 H       1  LIG1        0.0833
     52 H           0.1636    2.4732    2.3907 H       1  LIG1        0.0655
     53 H          -1.0450   -5.1925    0.7235 H       1  LIG1        0.0830
     54 H           8.9031   -2.9928   -0.6770 H       1  LIG1        0.0278
     55 H           9.4054   -1.3168   -0.9570 H       1  LIG1        0.0278
     56 H           8.4503   -2.1908   -2.1850 H       1  LIG1        0.0278
     57 H          -1.6364    2.2399   -2.8808 H       1  LIG1        0.0591
     58 H          -3.3286    2.7599   -3.1080 H       1  LIG1        0.0591
     59 H           1.2075    7.1861    1.2423 H       1  LIG1        0.0655
     60 H          -0.4803    4.2885    3.9127 H       1  LIG1        0.0619
     61 H           0.0220    6.6478    3.3342 H       1  LIG1        0.0619
     62 H           3.8343    6.1036   -1.2443 H       1  LIG1        0.0660
     63 H           3.7114    6.0636    0.5197 H       1  LIG1        0.0660
     64 H           2.8073    7.2958   -0.4358 H       1  LIG1        0.0660
@<TRIPOS>BOND
     1     1     4    2
     2     1     5    2
     3     1     8    1
     4     1    21    1
     5     2    18    1
     6     2    24    1
     7     3    19    1
     8     3    29    1
     9     6    32    1
    10     6    41    1
    11     7    36    1
    12     8    17    1
    13     9    17   ar
    14     9    20   ar
    15    10    19   ar
    16    10    20   ar
    17    11    21   ar
    18    11    31   ar
    19    12    30   ar
    20    12    34   ar
    21    13    15   ar
    22    13    40   ar
    23    14    16   ar
    24    14    40   ar
    25    15    16   ar
    26    17    18   ar
    27    18    19   ar
    28    20    22    1
    29    21    23   ar
    30    22    25   ar
    31    22    28   ar
    32    23    27   ar
    33    24    32   ar
    34    24    33   ar
    35    25    30   ar
    36    26    27   ar
    37    26    31   ar
    38    26    35    1
    39    28    34   ar
    40    29    36    1
    41    30    40    1
    42    32    37   ar
    43    33    38   ar
    44    37    39   ar
    45    38    39   ar
    46     7    42    1
    47     8    43    1
    48    15    44    1
    49    23    45    1
    50    25    46    1
    51    27    47    1
    52    28    48    1
    53    29    49    1
    54    29    50    1
    55    31    51    1
    56    33    52    1
    57    34    53    1
    58    35    54    1
    59    35    55    1
    60    35    56    1
    61    36    57    1
    62    36    58    1
    63    37    59    1
    64    38    60    1
    65    39    61    1
    66    41    62    1
    67    41    63    1
    68    41    64    1
@<TRIPOS>MOLECULE
6433095
 64 68 0 0 0
SMALL
GASTEIGER

@<TRIPOS>ATOM
      1 S           3.2898    0.5273   -1.9735 S.O2    1  LIG1        0.0908
      2 O           1.3869    2.7321    0.1062 O.3     1  LIG1       -0.4435
      3 O          -1.2888    2.6657    0.2207 O.3     1  LIG1       -0.4715
      4 O           4.5727    1.1844   -1.8168 O.2     1  LIG1       -0.1484
      5 O           2.2121    1.1690   -2.7011 O.2     1  LIG1       -0.1484
      6 O           3.4016    4.6431   -0.4400 O.3     1  LIG1       -0.4914
      7 O          -3.3211    3.6107   -1.7551 O.3     1  LIG1       -0.3917
      8 N           2.7743    0.1573   -0.4003 N.pl3   1  LIG1       -0.1950
      9 N           0.7211   -0.8725   -0.2667 N.ar    1  LIG1       -0.2073
     10 N          -1.3182    0.3262    0.0142 N.ar    1  LIG1       -0.1899
     11 N           4.8351   -1.5128   -2.7182 N.ar    1  LIG1       -0.2351
     12 N          -2.8866   -4.4386    0.0823 N.ar    1  LIG1       -0.2552
     13 N          -5.7251   -4.3465   -0.4703 N.ar    1  LIG1       -0.5621
     14 N          -5.5182   -2.2541   -1.3027 N.ar    1  LIG1       -0.1535
     15 N          -6.8592   -3.8429   -0.9707 N.ar    1  LIG1       -0.3597
     16 N          -6.7837   -2.6063   -1.4752 N.ar    1  LIG1       -0.0878
     17 C           1.3771    0.2992   -0.1843 C.ar    1  LIG1        0.1882
     18 C           0.7649    1.5207    0.0337 C.ar    1  LIG1        0.2307
     19 C          -0.6121    1.4690    0.0835 C.ar    1  LIG1        0.2641
     20 C          -0.6150   -0.8083   -0.1380 C.ar    1  LIG1        0.1659
     21 C           3.5452   -1.0922   -2.6981 C.ar    1  LIG1        0.1969
     22 C          -1.3777   -2.0651   -0.1014 C.ar    1  LIG1        0.0227
     23 C           2.4841   -1.7631   -3.2894 C.ar    1  LIG1       -0.0160
     24 C           2.4068    2.9204    1.0105 C.ar    1  LIG1        0.1702
     25 C          -2.7402   -2.0961   -0.4447 C.ar    1  LIG1       -0.0252
     26 C           4.0811   -3.4298   -3.9938 C.ar    1  LIG1       -0.0322
     27 C           2.7653   -2.9589   -3.9417 C.ar    1  LIG1       -0.0541
     28 C          -0.7944   -3.2651    0.3211 C.ar    1  LIG1       -0.0328
     29 C          -2.7136    2.5603    0.3448 C.3     1  LIG1        0.1143
     30 C          -3.4592   -3.2845   -0.3432 C.ar    1  LIG1        0.0708
     31 C           5.0701   -2.6686   -3.3745 C.ar    1  LIG1        0.0327
     32 C           3.3961    3.8588    0.6833 C.ar    1  LIG1        0.1621
     33 C           2.4941    2.2205    2.2229 C.ar    1  LIG1       -0.0157
     34 C          -1.5775   -4.4041    0.4019 C.ar    1  LIG1        0.0289
     35 C           4.4385   -4.6752   -4.7423 C.3     1  LIG1       -0.0383
     36 C          -3.4060    2.3971   -1.0098 C.3     1  LIG1        0.0783
     37 C           4.5197    3.9940    1.5019 C.ar    1  LIG1       -0.0163
     38 C           3.6094    2.3809    3.0475 C.ar    1  LIG1       -0.0581
     39 C           4.6296    3.2544    2.6787 C.ar    1  LIG1       -0.0581
     40 C          -4.8818   -3.3191   -0.6939 C.ar    1  LIG1        0.0207
     41 C           2.1609    5.2932   -0.7138 C.3     1  LIG1        0.0790
     42 H          -3.6958    3.4301   -2.6345 H       1  LIG1        0.2095
     43 H           3.3866    0.6595    0.2381 H       1  LIG1        0.1754
     44 H          -7.7308   -4.3656   -0.9661 H       1  LIG1        0.1651
     45 H           1.4768   -1.3648   -3.2544 H       1  LIG1        0.0653
     46 H          -3.2369   -1.1888   -0.7804 H       1  LIG1        0.0646
     47 H           1.9600   -3.5091   -4.4216 H       1  LIG1        0.0622
     48 H           0.2521   -3.3107    0.6099 H       1  LIG1        0.0640
     49 H          -3.0433    3.5012    0.8003 H       1  LIG1        0.0720
     50 H          -2.9920    1.7599    1.0410 H       1  LIG1        0.0720
     51 H           6.1140   -2.9731   -3.4004 H       1  LIG1        0.0833
     52 H           1.7118    1.5362    2.5392 H       1  LIG1        0.0655
     53 H          -1.1609   -5.3471    0.7458 H       1  LIG1        0.0830
     54 H           3.5492   -5.2714   -4.9709 H       1  LIG1        0.0278
     55 H           5.1112   -5.3009   -4.1469 H       1  LIG1        0.0278
     56 H           4.9310   -4.4168   -5.6853 H       1  LIG1        0.0278
     57 H          -2.9534    1.6037   -1.6104 H       1  LIG1        0.0591
     58 H          -4.4667    2.1732   -0.8599 H       1  LIG1        0.0591
     59 H           5.3088    4.6873    1.2206 H       1  LIG1        0.0655
     60 H           3.6868    1.8195    3.9757 H       1  LIG1        0.0619
     61 H           5.5065    3.3711    3.3107 H       1  LIG1        0.0619
     62 H           2.3857    6.2499   -1.1953 H       1  LIG1        0.0660
     63 H           1.5846    5.5080    0.1938 H       1  LIG1        0.0660
     64 H           1.5710    4.6992   -1.4179 H       1  LIG1        0.0660
@<TRIPOS>BOND
     1     1     4    2
     2     1     5    2
     3     1     8    1
     4     1    21    1
     5     2    18    1
     6     2    24    1
     7     3    19    1
     8     3    29    1
     9     6    32    1
    10     6    41    1
    11     7    36    1
    12     8    17    1
    13     9    17   ar
    14     9    20   ar
    15    10    19   ar
    16    10    20   ar
    17    11    21   ar
    18    11    31   ar
    19    12    30   ar
    20    12    34   ar
    21    13    15   ar
    22    13    40   ar
    23    14    16   ar
    24    14    40   ar
    25    15    16   ar
    26    17    18   ar
    27    18    19   ar
    28    20    22    1
    29    21    23   ar
    30    22    25   ar
    31    22    28   ar
    32    23    27   ar
    33    24    32   ar
    34    24    33   ar
    35    25    30   ar
    36    26    27   ar
    37    26    31   ar
    38    26    35    1
    39    28    34   ar
    40    29    36    1
    41    30    40    1
    42    32    37   ar
    43    33    38   ar
    44    37    39   ar
    45    38    39   ar
    46     7    42    1
    47     8    43    1
    48    15    44    1
    49    23    45    1
    50    25    46    1
    51    27    47    1
    52    28    48    1
    53    29    49    1
    54    29    50    1
    55    31    51    1
    56    33    52    1
    57    34    53    1
    58    35    54    1
    59    35    55    1
    60    35    56    1
    61    36    57    1
    62    36    58    1
    63    37    59    1
    64    38    60    1
    65    39    61    1
    66    41    62    1
    67    41    63    1
    68    41    64    1
@<TRIPOS>MOLECULE
6433095
 64 68 0 0 0
SMALL
GASTEIGER

@<TRIPOS>ATOM
      1 S           3.4084    0.1692    1.0863 S.O2    1  LIG1        0.0908
      2 O           1.3967    2.7869   -0.0467 O.3     1  LIG1       -0.4435
      3 O          -1.4578    2.7960   -0.2281 O.3     1  LIG1       -0.4715
      4 O           2.4463   -0.2724    2.0774 O.2     1  LIG1       -0.1484
      5 O           4.1754    1.3841    1.2945 O.2     1  LIG1       -0.1484
      6 O           2.0003    5.3308   -0.5921 O.3     1  LIG1       -0.4914
      7 O          -3.5882    3.1084   -3.2058 O.3     1  LIG1       -0.3917
      8 N           2.6579    0.3339   -0.4277 N.pl3   1  LIG1       -0.1950
      9 N           0.6027   -0.7370   -0.4339 N.ar    1  LIG1       -0.2073
     10 N          -1.4439    0.4682   -0.3170 N.ar    1  LIG1       -0.1899
     11 N           5.5886   -0.8466   -0.0529 N.ar    1  LIG1       -0.2351
     12 N          -2.9947   -4.3081   -0.0928 N.ar    1  LIG1       -0.2552
     13 N          -1.9880   -6.7275   -1.2457 N.ar    1  LIG1       -0.5621
     14 N          -0.2184   -5.6309   -2.1276 N.ar    1  LIG1       -0.1535
     15 N          -1.1904   -7.4940   -1.9955 N.ar    1  LIG1       -0.3597
     16 N          -0.1277   -6.8887   -2.5359 N.ar    1  LIG1       -0.0878
     17 C           1.2415    0.4440   -0.3536 C.ar    1  LIG1        0.1882
     18 C           0.6262    1.6666   -0.1748 C.ar    1  LIG1        0.2307
     19 C          -0.7478    1.6166   -0.2561 C.ar    1  LIG1        0.2641
     20 C          -0.7355   -0.6742   -0.3624 C.ar    1  LIG1        0.1659
     21 C           4.5474   -1.1744    0.7612 C.ar    1  LIG1        0.1969
     22 C          -1.4980   -1.9292   -0.2820 C.ar    1  LIG1        0.0227
     23 C           4.3273   -2.4299    1.3031 C.ar    1  LIG1       -0.0160
     24 C           1.0406    3.7376    0.8895 C.ar    1  LIG1        0.1702
     25 C          -1.0257   -3.1281   -0.8374 C.ar    1  LIG1       -0.0252
     26 C           6.3362   -3.1428    0.1686 C.ar    1  LIG1       -0.0322
     27 C           5.2448   -3.4302    0.9950 C.ar    1  LIG1       -0.0541
     28 C          -2.7399   -1.9657    0.3705 C.ar    1  LIG1       -0.0328
     29 C          -2.6666    2.7828   -0.9895 C.3     1  LIG1        0.1143
     30 C          -1.7974   -4.2858   -0.7352 C.ar    1  LIG1        0.0708
     31 C           6.4609   -1.8425   -0.3180 C.ar    1  LIG1        0.0327
     32 C           1.3533    5.0703    0.5905 C.ar    1  LIG1        0.1621
     33 C           0.4433    3.4287    2.1184 C.ar    1  LIG1       -0.0157
     34 C          -3.4359   -3.1571    0.4446 C.ar    1  LIG1        0.0289
     35 C           7.3581   -4.1823   -0.1709 C.3     1  LIG1       -0.0383
     36 C          -2.3754    3.0159   -2.4699 C.3     1  LIG1        0.0783
     37 C           0.9581    6.0935    1.4576 C.ar    1  LIG1       -0.0163
     38 C           0.0635    4.4530    2.9886 C.ar    1  LIG1       -0.0581
     39 C           0.3058    5.7835    2.6514 C.ar    1  LIG1       -0.0581
     40 C          -1.3537   -5.5414   -1.3468 C.ar    1  LIG1        0.0207
     41 C           3.1393    6.1729   -0.4147 C.3     1  LIG1        0.0790
     42 H          -3.3441    3.2807   -4.1318 H       1  LIG1        0.2095
     43 H           3.0789    1.1652   -0.8489 H       1  LIG1        0.1754
     44 H          -1.3793   -8.4808   -2.1478 H       1  LIG1        0.1651
     45 H           3.4692   -2.6332    1.9344 H       1  LIG1        0.0653
     46 H          -0.0694   -3.1489   -1.3548 H       1  LIG1        0.0646
     47 H           5.1031   -4.4304    1.3986 H       1  LIG1        0.0622
     48 H          -3.1594   -1.0738    0.8287 H       1  LIG1        0.0640
     49 H          -3.2849    3.6095   -0.6195 H       1  LIG1        0.0720
     50 H          -3.2746    1.8840   -0.8293 H       1  LIG1        0.0720
     51 H           7.2955   -1.5600   -0.9558 H       1  LIG1        0.0833
     52 H           0.2500    2.4001    2.4098 H       1  LIG1        0.0655
     53 H          -4.3948   -3.2169    0.9518 H       1  LIG1        0.0830
     54 H           7.0482   -5.1749    0.1722 H       1  LIG1        0.0278
     55 H           8.3138   -3.9407    0.3050 H       1  LIG1        0.0278
     56 H           7.5002   -4.2367   -1.2552 H       1  LIG1        0.0278
     57 H          -1.8073    3.9435   -2.6017 H       1  LIG1        0.0591
     58 H          -1.7747    2.1992   -2.8834 H       1  LIG1        0.0591
     59 H           1.1368    7.1345    1.2074 H       1  LIG1        0.0655
     60 H          -0.4314    4.2112    3.9262 H       1  LIG1        0.0619
     61 H          -0.0090    6.5797    3.3211 H       1  LIG1        0.0619
     62 H           3.8108    6.0116   -1.2632 H       1  LIG1        0.0660
     63 H           3.6940    5.9332    0.5005 H       1  LIG1        0.0660
     64 H           2.8386    7.2252   -0.4176 H       1  LIG1        0.0660
@<TRIPOS>BOND
     1     1     4    2
     2     1     5    2
     3     1     8    1
     4     1    21    1
     5     2    18    1
     6     2    24    1
     7     3    19    1
     8     3    29    1
     9     6    32    1
    10     6    41    1
    11     7    36    1
    12     8    17    1
    13     9    17   ar
    14     9    20   ar
    15    10    19   ar
    16    10    20   ar
    17    11    21   ar
    18    11    31   ar
    19    12    30   ar
    20    12    34   ar
    21    13    15   ar
    22    13    40   ar
    23    14    16   ar
    24    14    40   ar
    25    15    16   ar
    26    17    18   ar
    27    18    19   ar
    28    20    22    1
    29    21    23   ar
    30    22    25   ar
    31    22    28   ar
    32    23    27   ar
    33    24    32   ar
    34    24    33   ar
    35    25    30   ar
    36    26    27   ar
    37    26    31   ar
    38    26    35    1
    39    28    34   ar
    40    29    36    1
    41    30    40    1
    42    32    37   ar
    43    33    38   ar
    44    37    39   ar
    45    38    39   ar
    46     7    42    1
    47     8    43    1
    48    15    44    1
    49    23    45    1
    50    25    46    1
    51    27    47    1
    52    28    48    1
    53    29    49    1
    54    29    50    1
    55    31    51    1
    56    33    52    1
    57    34    53    1
    58    35    54    1
    59    35    55    1
    60    35    56    1
    61    36    57    1
    62    36    58    1
    63    37    59    1
    64    38    60    1
    65    39    61    1
    66    41    62    1
    67    41    63    1
    68    41    64    1
@<TRIPOS>MOLECULE
6433095
 64 68 0 0 0
SMALL
GASTEIGER

@<TRIPOS>ATOM
      1 S           3.6335    0.2324    0.9939 S.O2    1  LIG1        0.0908
      2 O           1.4383    2.6659    0.0598 O.3     1  LIG1       -0.4435
      3 O          -1.3896    2.7331   -0.2711 O.3     1  LIG1       -0.4715
      4 O           4.1697    1.5833    0.9633 O.2     1  LIG1       -0.1484
      5 O           4.5508   -0.8885    0.9595 O.2     1  LIG1       -0.1484
      6 O           2.1914    5.1427   -0.4957 O.3     1  LIG1       -0.4914
      7 O          -1.7749    3.5102   -3.0843 O.3     1  LIG1       -0.3917
      8 N           2.6517    0.1511   -0.3858 N.pl3   1  LIG1       -0.1950
      9 N           0.5713   -0.8413   -0.3186 N.ar    1  LIG1       -0.2073
     10 N          -1.4460    0.4036   -0.2248 N.ar    1  LIG1       -0.1899
     11 N           1.7953   -0.9594    2.5138 N.ar    1  LIG1       -0.2351
     12 N          -3.1218   -4.3284   -0.2499 N.ar    1  LIG1       -0.2552
     13 N          -2.1795   -6.6698   -1.6083 N.ar    1  LIG1       -0.5621
     14 N          -0.1851   -5.6890   -2.0236 N.ar    1  LIG1       -0.1535
     15 N          -1.3180   -7.4446   -2.2758 N.ar    1  LIG1       -0.3597
     16 N          -0.1245   -6.9063   -2.5437 N.ar    1  LIG1       -0.0878
     17 C           1.2454    0.3161   -0.2133 C.ar    1  LIG1        0.1882
     18 C           0.6558    1.5549   -0.0580 C.ar    1  LIG1        0.2307
     19 C          -0.7180    1.5344   -0.1781 C.ar    1  LIG1        0.2641
     20 C          -0.7627   -0.7525   -0.2564 C.ar    1  LIG1        0.1659
     21 C           2.6385    0.1028    2.4719 C.ar    1  LIG1        0.1969
     22 C          -1.5537   -1.9903   -0.2444 C.ar    1  LIG1        0.0227
     23 C           2.7863    1.0316    3.4910 C.ar    1  LIG1       -0.0160
     24 C           1.0807    3.6487    0.9654 C.ar    1  LIG1        0.1702
     25 C          -1.0743   -3.1822   -0.8083 C.ar    1  LIG1       -0.0252
     26 C           1.1584   -0.2405    4.7367 C.ar    1  LIG1       -0.0322
     27 C           2.0263    0.8517    4.6422 C.ar    1  LIG1       -0.0541
     28 C          -2.8349   -2.0147    0.3267 C.ar    1  LIG1       -0.0328
     29 C          -2.6373    2.6720   -0.9758 C.3     1  LIG1        0.1143
     30 C          -1.8825   -4.3179   -0.8090 C.ar    1  LIG1        0.0708
     31 C           1.0838   -1.1088    3.6497 C.ar    1  LIG1        0.0327
     32 C           1.4845    4.9587    0.6658 C.ar    1  LIG1        0.1621
     33 C           0.4012    3.3900    2.1646 C.ar    1  LIG1       -0.0157
     34 C          -3.5652   -3.1878    0.3072 C.ar    1  LIG1        0.0289
     35 C           0.3482   -0.4964    5.9684 C.3     1  LIG1       -0.0383
     36 C          -2.4568    2.4159   -2.4760 C.3     1  LIG1        0.0783
     37 C           1.1165    6.0076    1.5153 C.ar    1  LIG1       -0.0163
     38 C           0.0535    4.4400    3.0157 C.ar    1  LIG1       -0.0581
     39 C           0.3984    5.7476    2.6844 C.ar    1  LIG1       -0.0581
     40 C          -1.4363   -5.5544   -1.4564 C.ar    1  LIG1        0.0207
     41 C           3.1783    6.1676   -0.4368 C.3     1  LIG1        0.0790
     42 H          -1.5827    3.2556   -4.0030 H       1  LIG1        0.2095
     43 H           2.9878    0.9244   -0.9640 H       1  LIG1        0.1754
     44 H          -1.5566   -8.3876   -2.5693 H       1  LIG1        0.1651
     45 H           3.4786    1.8635    3.4054 H       1  LIG1        0.0653
     46 H          -0.0860   -3.2105   -1.2624 H       1  LIG1        0.0646
     47 H           2.1259    1.5556    5.4655 H       1  LIG1        0.0622
     48 H          -3.2610   -1.1277    0.7872 H       1  LIG1        0.0640
     49 H          -3.1024    3.6551   -0.8410 H       1  LIG1        0.0720
     50 H          -3.3117    1.9381   -0.5191 H       1  LIG1        0.0720
     51 H           0.4345   -1.9814    3.6686 H       1  LIG1        0.0833
     52 H           0.1148    2.3817    2.4475 H       1  LIG1        0.0655
     53 H          -4.5573   -3.2399    0.7468 H       1  LIG1        0.0830
     54 H           0.4959    0.2904    6.7152 H       1  LIG1        0.0278
     55 H           0.6425   -1.4489    6.4209 H       1  LIG1        0.0278
     56 H          -0.7174   -0.5290    5.7210 H       1  LIG1        0.0278
     57 H          -1.8752    1.5102   -2.6697 H       1  LIG1        0.0591
     58 H          -3.4337    2.3181   -2.9588 H       1  LIG1        0.0591
     59 H           1.3596    7.0376    1.2747 H       1  LIG1        0.0655
     60 H          -0.5004    4.2384    3.9291 H       1  LIG1        0.0619
     61 H           0.1060    6.5685    3.3346 H       1  LIG1        0.0619
     62 H           3.8754    6.0087   -1.2651 H       1  LIG1        0.0660
     63 H           3.7538    6.1271    0.4951 H       1  LIG1        0.0660
     64 H           2.7199    7.1524   -0.5698 H       1  LIG1        0.0660
@<TRIPOS>BOND
     1     1     4    2
     2     1     5    2
     3     1     8    1
     4     1    21    1
     5     2    18    1
     6     2    24    1
     7     3    19    1
     8     3    29    1
     9     6    32    1
    10     6    41    1
    11     7    36    1
    12     8    17    1
    13     9    17   ar
    14     9    20   ar
    15    10    19   ar
    16    10    20   ar
    17    11    21   ar
    18    11    31   ar
    19    12    30   ar
    20    12    34   ar
    21    13    15   ar
    22    13    40   ar
    23    14    16   ar
    24    14    40   ar
    25    15    16   ar
    26    17    18   ar
    27    18    19   ar
    28    20    22    1
    29    21    23   ar
    30    22    25   ar
    31    22    28   ar
    32    23    27   ar
    33    24    32   ar
    34    24    33   ar
    35    25    30   ar
    36    26    27   ar
    37    26    31   ar
    38    26    35    1
    39    28    34   ar
    40    29    36    1
    41    30    40    1
    42    32    37   ar
    43    33    38   ar
    44    37    39   ar
    45    38    39   ar
    46     7    42    1
    47     8    43    1
    48    15    44    1
    49    23    45    1
    50    25    46    1
    51    27    47    1
    52    28    48    1
    53    29    49    1
    54    29    50    1
    55    31    51    1
    56    33    52    1
    57    34    53    1
    58    35    54    1
    59    35    55    1
    60    35    56    1
    61    36    57    1
    62    36    58    1
    63    37    59    1
    64    38    60    1
    65    39    61    1
    66    41    62    1
    67    41    63    1
    68    41    64    1
@<TRIPOS>MOLECULE
6433095
 64 68 0 0 0
SMALL
GASTEIGER

@<TRIPOS>ATOM
      1 S           3.4214    0.2855   -1.9745 S.O2    1  LIG1        0.0908
      2 O           1.4166    2.7886    0.1408 O.3     1  LIG1       -0.4435
      3 O          -1.2574    2.7482    0.2402 O.3     1  LIG1       -0.4715
      4 O           4.0338   -1.0039   -2.2277 O.2     1  LIG1       -0.1484
      5 O           4.2451    1.4808   -2.0032 O.2     1  LIG1       -0.1484
      6 O           3.3929    4.7955   -0.2625 O.3     1  LIG1       -0.4914
      7 O          -4.8322    2.5043   -0.6271 O.3     1  LIG1       -0.3917
      8 N           2.7857    0.2202   -0.4093 N.pl3   1  LIG1       -0.1950
      9 N           0.7043   -0.7827   -0.4239 N.ar    1  LIG1       -0.2073
     10 N          -1.3122    0.4228   -0.0679 N.ar    1  LIG1       -0.1899
     11 N           1.3557    1.6330   -3.0033 N.ar    1  LIG1       -0.2351
     12 N          -2.9573   -4.3281   -0.3613 N.ar    1  LIG1       -0.2552
     13 N          -1.6525   -6.8677   -0.6468 N.ar    1  LIG1       -0.5621
     14 N           0.3747   -5.9015   -0.3838 N.ar    1  LIG1       -0.1535
     15 N          -0.6339   -7.7337   -0.6242 N.ar    1  LIG1       -0.3597
     16 N           0.5851   -7.2070   -0.4715 N.ar    1  LIG1       -0.0878
     17 C           1.3796    0.3703   -0.2590 C.ar    1  LIG1        0.1882
     18 C           0.7838    1.5865    0.0240 C.ar    1  LIG1        0.2307
     19 C          -0.5921    1.5488    0.0665 C.ar    1  LIG1        0.2641
     20 C          -0.6309   -0.7146   -0.2869 C.ar    1  LIG1        0.1659
     21 C           2.1051    0.5086   -3.1648 C.ar    1  LIG1        0.1969
     22 C          -1.4190   -1.9613   -0.3322 C.ar    1  LIG1        0.0227
     23 C           1.9707   -0.3882   -4.2137 C.ar    1  LIG1       -0.0160
     24 C           2.4104    2.9644    1.0760 C.ar    1  LIG1        0.1702
     25 C          -0.8120   -3.2250   -0.4148 C.ar    1  LIG1       -0.0252
     26 C           0.2224    1.0381   -5.0639 C.ar    1  LIG1       -0.0322
     27 C           1.0074   -0.1125   -5.1776 C.ar    1  LIG1       -0.0541
     28 C          -2.8219   -1.9320   -0.2611 C.ar    1  LIG1       -0.0328
     29 C          -2.6679    2.6357    0.4421 C.3     1  LIG1        0.1143
     30 C          -1.6011   -4.3760   -0.4239 C.ar    1  LIG1        0.0708
     31 C           0.4341    1.8661   -3.9627 C.ar    1  LIG1        0.0327
     32 C           3.3792    3.9453    0.8122 C.ar    1  LIG1        0.1621
     33 C           2.5053    2.1990    2.2478 C.ar    1  LIG1       -0.0157
     34 C          -3.5344   -3.1171   -0.2784 C.ar    1  LIG1        0.0289
     35 C          -0.7995    1.3908   -6.0985 C.3     1  LIG1       -0.0383
     36 C          -3.4314    2.5376   -0.8770 C.3     1  LIG1        0.0783
     37 C           4.4888    4.0631    1.6535 C.ar    1  LIG1       -0.0163
     38 C           3.6079    2.3411    3.0928 C.ar    1  LIG1       -0.0581
     39 C           4.6073    3.2609    2.7872 C.ar    1  LIG1       -0.0581
     40 C          -0.9875   -5.7051   -0.4878 C.ar    1  LIG1        0.0207
     41 C           2.1292    5.3439   -0.6266 C.3     1  LIG1        0.0790
     42 H          -5.2756    2.4598   -1.4919 H       1  LIG1        0.2095
     43 H           3.2974    0.9456    0.0912 H       1  LIG1        0.1754
     44 H          -0.7750   -8.7354   -0.7199 H       1  LIG1        0.1651
     45 H           2.6113   -1.2601   -4.3002 H       1  LIG1        0.0653
     46 H           0.2719   -3.3088   -0.4610 H       1  LIG1        0.0646
     47 H           0.8897   -0.7864   -6.0232 H       1  LIG1        0.0622
     48 H          -3.3647   -0.9936   -0.1825 H       1  LIG1        0.0640
     49 H          -2.9848    3.5514    0.9562 H       1  LIG1        0.0720
     50 H          -2.9293    1.8235    1.1331 H       1  LIG1        0.0720
     51 H          -0.1447    2.7768   -3.8274 H       1  LIG1        0.0833
     52 H           1.7458    1.4686    2.5127 H       1  LIG1        0.0655
     53 H          -4.6194   -3.1215   -0.2184 H       1  LIG1        0.0830
     54 H          -0.8378    0.6400   -6.8950 H       1  LIG1        0.0278
     55 H          -0.5535    2.3533   -6.5587 H       1  LIG1        0.0278
     56 H          -1.7935    1.4506   -5.6449 H       1  LIG1        0.0278
     57 H          -3.2032    3.4003   -1.5120 H       1  LIG1        0.0591
     58 H          -3.1580    1.6383   -1.4365 H       1  LIG1        0.0591
     59 H           5.2636    4.7903    1.4215 H       1  LIG1        0.0655
     60 H           3.6943    1.7243    3.9845 H       1  LIG1        0.0619
     61 H           5.4760    3.3616    3.4333 H       1  LIG1        0.0619
     62 H           2.3093    6.3256   -1.0755 H       1  LIG1        0.0660
     63 H           1.4690    5.4932    0.2356 H       1  LIG1        0.0660
     64 H           1.6490    4.7192   -1.3856 H       1  LIG1        0.0660
@<TRIPOS>BOND
     1     1     4    2
     2     1     5    2
     3     1     8    1
     4     1    21    1
     5     2    18    1
     6     2    24    1
     7     3    19    1
     8     3    29    1
     9     6    32    1
    10     6    41    1
    11     7    36    1
    12     8    17    1
    13     9    17   ar
    14     9    20   ar
    15    10    19   ar
    16    10    20   ar
    17    11    21   ar
    18    11    31   ar
    19    12    30   ar
    20    12    34   ar
    21    13    15   ar
    22    13    40   ar
    23    14    16   ar
    24    14    40   ar
    25    15    16   ar
    26    17    18   ar
    27    18    19   ar
    28    20    22    1
    29    21    23   ar
    30    22    25   ar
    31    22    28   ar
    32    23    27   ar
    33    24    32   ar
    34    24    33   ar
    35    25    30   ar
    36    26    27   ar
    37    26    31   ar
    38    26    35    1
    39    28    34   ar
    40    29    36    1
    41    30    40    1
    42    32    37   ar
    43    33    38   ar
    44    37    39   ar
    45    38    39   ar
    46     7    42    1
    47     8    43    1
    48    15    44    1
    49    23    45    1
    50    25    46    1
    51    27    47    1
    52    28    48    1
    53    29    49    1
    54    29    50    1
    55    31    51    1
    56    33    52    1
    57    34    53    1
    58    35    54    1
    59    35    55    1
    60    35    56    1
    61    36    57    1
    62    36    58    1
    63    37    59    1
    64    38    60    1
    65    39    61    1
    66    41    62    1
    67    41    63    1
    68    41    64    1
@<TRIPOS>MOLECULE
6433095
 64 68 0 0 0
SMALL
GASTEIGER

@<TRIPOS>ATOM
      1 S           3.3852    0.5164   -1.8624 S.O2    1  LIG1        0.0908
      2 O           1.4104    2.6904    0.0843 O.3     1  LIG1       -0.4435
      3 O          -1.2566    2.7296    0.0562 O.3     1  LIG1       -0.4715
      4 O           4.6680    1.0939   -1.5211 O.2     1  LIG1       -0.1484
      5 O           2.4014    1.2561   -2.6310 O.2     1  LIG1       -0.1484
      6 O           3.2654    4.7939   -0.3290 O.3     1  LIG1       -0.4914
      7 O          -3.3856    3.4792   -1.9138 O.3     1  LIG1       -0.3917
      8 N           2.7169    0.0343   -0.3843 N.pl3   1  LIG1       -0.1950
      9 N           0.6174   -0.8880   -0.3164 N.ar    1  LIG1       -0.2073
     10 N          -1.3717    0.3869   -0.0210 N.ar    1  LIG1       -0.1899
     11 N           4.9461   -1.4038   -2.8656 N.ar    1  LIG1       -0.2351
     12 N          -3.1416   -4.3073   -0.1273 N.ar    1  LIG1       -0.2552
     13 N          -2.3753   -6.5210   -1.8070 N.ar    1  LIG1       -0.5621
     14 N          -0.2365   -5.7862   -1.8256 N.ar    1  LIG1       -0.1535
     15 N          -1.5210   -7.3464   -2.4200 N.ar    1  LIG1       -0.3597
     16 N          -0.2428   -6.9529   -2.4547 N.ar    1  LIG1       -0.0878
     17 C           1.3221    0.2563   -0.2331 C.ar    1  LIG1        0.1882
     18 C           0.7564    1.4997   -0.0125 C.ar    1  LIG1        0.2307
     19 C          -0.6231    1.5025    0.0146 C.ar    1  LIG1        0.2641
     20 C          -0.7133   -0.7747   -0.1688 C.ar    1  LIG1        0.1659
     21 C           3.6467   -1.0510   -2.6882 C.ar    1  LIG1        0.1969
     22 C          -1.5263   -2.0000   -0.1456 C.ar    1  LIG1        0.0227
     23 C           2.5581   -1.7763   -3.1483 C.ar    1  LIG1       -0.0160
     24 C           2.4500    2.8564    0.9693 C.ar    1  LIG1        0.1702
     25 C          -1.0942   -3.1911   -0.7474 C.ar    1  LIG1       -0.0252
     26 C           4.1398   -3.3585   -4.0486 C.ar    1  LIG1       -0.0322
     27 C           2.8172   -2.9583   -3.8340 C.ar    1  LIG1       -0.0541
     28 C          -2.7834   -2.0121    0.4787 C.ar    1  LIG1       -0.0328
     29 C          -2.6724    2.6948    0.2749 C.3     1  LIG1        0.1143
     30 C          -1.9273   -4.3089   -0.7362 C.ar    1  LIG1        0.0708
     31 C           5.1572   -2.5492   -3.5462 C.ar    1  LIG1        0.0327
     32 C           3.3659    3.8821    0.6902 C.ar    1  LIG1        0.1621
     33 C           2.6387    2.0570    2.1070 C.ar    1  LIG1       -0.0157
     34 C          -3.5372   -3.1703    0.4710 C.ar    1  LIG1        0.0289
     35 C           4.4682   -4.6016   -4.8137 C.3     1  LIG1       -0.0383
     36 C          -3.4801    2.3957   -0.9918 C.3     1  LIG1        0.0783
     37 C           4.5309    3.9925    1.4541 C.ar    1  LIG1       -0.0163
     38 C           3.8005    2.1838    2.8713 C.ar    1  LIG1       -0.0581
     39 C           4.7563    3.1372    2.5318 C.ar    1  LIG1       -0.0581
     40 C          -1.5352   -5.5360   -1.4310 C.ar    1  LIG1        0.0207
     41 C           1.9552    5.3078   -0.5643 C.3     1  LIG1        0.0790
     42 H          -3.8301    3.1952   -2.7315 H       1  LIG1        0.2095
     43 H           3.3179    0.4004    0.3514 H       1  LIG1        0.1754
     44 H          -1.8253   -8.2170   -2.8469 H       1  LIG1        0.1651
     45 H           1.5428   -1.4332   -2.9868 H       1  LIG1        0.0653
     46 H          -0.1289   -3.2337   -1.2462 H       1  LIG1        0.0646
     47 H           1.9889   -3.5574   -4.2056 H       1  LIG1        0.0622
     48 H          -3.1740   -1.1268    0.9729 H       1  LIG1        0.0640
     49 H          -2.9388    3.6979    0.6275 H       1  LIG1        0.0720
     50 H          -2.9227    1.9981    1.0838 H       1  LIG1        0.0720
     51 H           6.2040   -2.8066   -3.6898 H       1  LIG1        0.0833
     52 H           1.9109    1.3061    2.4013 H       1  LIG1        0.0655
     53 H          -4.5091   -3.2117    0.9547 H       1  LIG1        0.0830
     54 H           3.5628   -5.1500   -5.0931 H       1  LIG1        0.0278
     55 H           5.0900   -5.2679   -4.2076 H       1  LIG1        0.0278
     56 H           5.0044   -4.3460   -5.7334 H       1  LIG1        0.0278
     57 H          -3.1372    1.4918   -1.5009 H       1  LIG1        0.0591
     58 H          -4.5369    2.2772   -0.7317 H       1  LIG1        0.0591
     59 H           5.2664    4.7533    1.2038 H       1  LIG1        0.0655
     60 H           3.9682    1.5304    3.7244 H       1  LIG1        0.0619
     61 H           5.6726    3.2261    3.1101 H       1  LIG1        0.0619
     62 H           2.0613    6.3097   -0.9916 H       1  LIG1        0.0660
     63 H           1.3685    5.4036    0.3570 H       1  LIG1        0.0660
     64 H           1.4315    4.6931   -1.3022 H       1  LIG1        0.0660
@<TRIPOS>BOND
     1     1     4    2
     2     1     5    2
     3     1     8    1
     4     1    21    1
     5     2    18    1
     6     2    24    1
     7     3    19    1
     8     3    29    1
     9     6    32    1
    10     6    41    1
    11     7    36    1
    12     8    17    1
    13     9    17   ar
    14     9    20   ar
    15    10    19   ar
    16    10    20   ar
    17    11    21   ar
    18    11    31   ar
    19    12    30   ar
    20    12    34   ar
    21    13    15   ar
    22    13    40   ar
    23    14    16   ar
    24    14    40   ar
    25    15    16   ar
    26    17    18   ar
    27    18    19   ar
    28    20    22    1
    29    21    23   ar
    30    22    25   ar
    31    22    28   ar
    32    23    27   ar
    33    24    32   ar
    34    24    33   ar
    35    25    30   ar
    36    26    27   ar
    37    26    31   ar
    38    26    35    1
    39    28    34   ar
    40    29    36    1
    41    30    40    1
    42    32    37   ar
    43    33    38   ar
    44    37    39   ar
    45    38    39   ar
    46     7    42    1
    47     8    43    1
    48    15    44    1
    49    23    45    1
    50    25    46    1
    51    27    47    1
    52    28    48    1
    53    29    49    1
    54    29    50    1
    55    31    51    1
    56    33    52    1
    57    34    53    1
    58    35    54    1
    59    35    55    1
    60    35    56    1
    61    36    57    1
    62    36    58    1
    63    37    59    1
    64    38    60    1
    65    39    61    1
    66    41    62    1
    67    41    63    1
    68    41    64    1
@<TRIPOS>MOLECULE
6433095
 64 68 0 0 0
SMALL
GASTEIGER

@<TRIPOS>ATOM
      1 S           3.6064    0.2500    0.9352 S.O2    1  LIG1        0.0908
      2 O           1.4109    2.6809    0.0580 O.3     1  LIG1       -0.4435
      3 O          -1.4341    2.7526   -0.1338 O.3     1  LIG1       -0.4715
      4 O           4.1334    1.6046    0.9065 O.2     1  LIG1       -0.1484
      5 O           4.5308   -0.8646    0.8893 O.2     1  LIG1       -0.1484
      6 O           2.0820    5.1823   -0.5359 O.3     1  LIG1       -0.4914
      7 O          -3.5618    3.0881   -3.1145 O.3     1  LIG1       -0.3917
      8 N           2.6167    0.1697   -0.4394 N.pl3   1  LIG1       -0.1950
      9 N           0.5351   -0.8145   -0.3889 N.ar    1  LIG1       -0.2073
     10 N          -1.4801    0.4265   -0.2279 N.ar    1  LIG1       -0.1899
     11 N           1.7512   -0.9295    2.4478 N.ar    1  LIG1       -0.2351
     12 N          -3.0950   -4.3444   -0.1534 N.ar    1  LIG1       -0.2552
     13 N          -2.0110   -6.7794   -1.2199 N.ar    1  LIG1       -0.5621
     14 N          -0.2728   -5.6542   -2.1286 N.ar    1  LIG1       -0.1535
     15 N          -1.1985   -7.5373   -1.9635 N.ar    1  LIG1       -0.3597
     16 N          -0.1564   -6.9142   -2.5224 N.ar    1  LIG1       -0.0878
     17 C           1.2118    0.3383   -0.2605 C.ar    1  LIG1        0.1882
     18 C           0.6236    1.5728   -0.0662 C.ar    1  LIG1        0.2307
     19 C          -0.7534    1.5552   -0.1542 C.ar    1  LIG1        0.2641
     20 C          -0.7977   -0.7287   -0.3063 C.ar    1  LIG1        0.1659
     21 C           2.6250    0.1076    2.4221 C.ar    1  LIG1        0.1969
     22 C          -1.5800   -1.9730   -0.2690 C.ar    1  LIG1        0.0227
     23 C           2.8072    1.0095    3.4600 C.ar    1  LIG1       -0.0160
     24 C           1.0615    3.6599    0.9686 C.ar    1  LIG1        0.1702
     25 C          -1.0905   -3.1733   -0.8071 C.ar    1  LIG1       -0.0252
     26 C           1.1500   -0.2397    4.6900 C.ar    1  LIG1       -0.0322
     27 C           2.0504    0.8269    4.6134 C.ar    1  LIG1       -0.0541
     28 C          -2.8503   -2.0027    0.3245 C.ar    1  LIG1       -0.0328
     29 C          -2.6421    2.7686   -0.8975 C.3     1  LIG1        0.1143
     30 C          -1.8702   -4.3271   -0.7426 C.ar    1  LIG1        0.0708
     31 C           1.0435   -1.0828    3.5862 C.ar    1  LIG1        0.0327
     32 C           1.4269    4.9760    0.6523 C.ar    1  LIG1        0.1621
     33 C           0.4245    3.3926    2.1881 C.ar    1  LIG1       -0.0157
     34 C          -3.5546   -3.1912    0.3639 C.ar    1  LIG1        0.0289
     35 C           0.3451   -0.5003    5.9241 C.3     1  LIG1       -0.0383
     36 C          -2.3489    2.9555   -2.3845 C.3     1  LIG1        0.0783
     37 C           1.0648    6.0224    1.5065 C.ar    1  LIG1       -0.0163
     38 C           0.0812    4.4397    3.0446 C.ar    1  LIG1       -0.0581
     39 C           0.3894    5.7532    2.6982 C.ar    1  LIG1       -0.0581
     40 C          -1.4035   -5.5811   -1.3399 C.ar    1  LIG1        0.0207
     41 C           3.1506    6.1221   -0.4453 C.3     1  LIG1        0.0790
     42 H          -3.3181    3.2138   -4.0482 H       1  LIG1        0.2095
     43 H           2.9536    0.9379   -1.0227 H       1  LIG1        0.1754
     44 H          -1.3621   -8.5308   -2.0992 H       1  LIG1        0.1651
     45 H           3.5222    1.8228    3.3865 H       1  LIG1        0.0653
     46 H          -0.1098   -3.1996   -1.2777 H       1  LIG1        0.0646
     47 H           2.1770    1.5093    5.4507 H       1  LIG1        0.0622
     48 H          -3.2858   -1.1092    0.7633 H       1  LIG1        0.0640
     49 H          -3.2268    3.6274   -0.5464 H       1  LIG1        0.0720
     50 H          -3.2838    1.8983   -0.7133 H       1  LIG1        0.0720
     51 H           0.3699   -1.9369    3.5917 H       1  LIG1        0.0833
     52 H           0.1641    2.3799    2.4807 H       1  LIG1        0.0655
     53 H          -4.5363   -3.2471    0.8256 H       1  LIG1        0.0830
     54 H           0.4825    0.2930    6.6663 H       1  LIG1        0.0278
     55 H           0.6518   -1.4469    6.3804 H       1  LIG1        0.0278
     56 H          -0.7208   -0.5469    5.6795 H       1  LIG1        0.0278
     57 H          -1.7400    3.8528   -2.5407 H       1  LIG1        0.0591
     58 H          -1.7898    2.1030   -2.7835 H       1  LIG1        0.0591
     59 H           1.2805    7.0548    1.2499 H       1  LIG1        0.0655
     60 H          -0.4421    4.2311    3.9745 H       1  LIG1        0.0619
     61 H           0.1000    6.5705    3.3544 H       1  LIG1        0.0619
     62 H           3.8176    5.9533   -1.2959 H       1  LIG1        0.0660
     63 H           3.7376    5.9896    0.4711 H       1  LIG1        0.0660
     64 H           2.7685    7.1452   -0.5167 H       1  LIG1        0.0660
@<TRIPOS>BOND
     1     1     4    2
     2     1     5    2
     3     1     8    1
     4     1    21    1
     5     2    18    1
     6     2    24    1
     7     3    19    1
     8     3    29    1
     9     6    32    1
    10     6    41    1
    11     7    36    1
    12     8    17    1
    13     9    17   ar
    14     9    20   ar
    15    10    19   ar
    16    10    20   ar
    17    11    21   ar
    18    11    31   ar
    19    12    30   ar
    20    12    34   ar
    21    13    15   ar
    22    13    40   ar
    23    14    16   ar
    24    14    40   ar
    25    15    16   ar
    26    17    18   ar
    27    18    19   ar
    28    20    22    1
    29    21    23   ar
    30    22    25   ar
    31    22    28   ar
    32    23    27   ar
    33    24    32   ar
    34    24    33   ar
    35    25    30   ar
    36    26    27   ar
    37    26    31   ar
    38    26    35    1
    39    28    34   ar
    40    29    36    1
    41    30    40    1
    42    32    37   ar
    43    33    38   ar
    44    37    39   ar
    45    38    39   ar
    46     7    42    1
    47     8    43    1
    48    15    44    1
    49    23    45    1
    50    25    46    1
    51    27    47    1
    52    28    48    1
    53    29    49    1
    54    29    50    1
    55    31    51    1
    56    33    52    1
    57    34    53    1
    58    35    54    1
    59    35    55    1
    60    35    56    1
    61    36    57    1
    62    36    58    1
    63    37    59    1
    64    38    60    1
    65    39    61    1
    66    41    62    1
    67    41    63    1
    68    41    64    1
@<TRIPOS>MOLECULE
6433095
 64 68 0 0 0
SMALL
GASTEIGER

@<TRIPOS>ATOM
      1 S           3.6350    0.2862    0.9905 S.O2    1  LIG1        0.0908
      2 O           1.4356    2.6667    0.0242 O.3     1  LIG1       -0.4435
      3 O          -1.3798    2.7346   -0.3243 O.3     1  LIG1       -0.4715
      4 O           4.1032    1.6602    0.9407 O.2     1  LIG1       -0.1484
      5 O           4.6090   -0.7875    0.9705 O.2     1  LIG1       -0.1484
      6 O           2.1322    5.1676   -0.5414 O.3     1  LIG1       -0.4914
      7 O          -3.7856    2.5573   -3.1116 O.3     1  LIG1       -0.3917
      8 N           2.6575    0.1290   -0.3852 N.pl3   1  LIG1       -0.1950
      9 N           0.5733   -0.8456   -0.3357 N.ar    1  LIG1       -0.2073
     10 N          -1.4415    0.4030   -0.2700 N.ar    1  LIG1       -0.1899
     11 N           1.8069   -0.9374    2.5000 N.ar    1  LIG1       -0.2351
     12 N          -3.0866   -4.3487   -0.1235 N.ar    1  LIG1       -0.2552
     13 N          -2.0250   -6.7913   -1.1999 N.ar    1  LIG1       -0.5621
     14 N          -0.2953   -5.6716   -2.1316 N.ar    1  LIG1       -0.1535
     15 N          -1.2291   -7.5502   -1.9605 N.ar    1  LIG1       -0.3597
     16 N          -0.1926   -6.9302   -2.5333 N.ar    1  LIG1       -0.0878
     17 C           1.2508    0.3093   -0.2282 C.ar    1  LIG1        0.1882
     18 C           0.6601    1.5501   -0.0914 C.ar    1  LIG1        0.2307
     19 C          -0.7138    1.5316   -0.2221 C.ar    1  LIG1        0.2641
     20 C          -0.7613   -0.7545   -0.2870 C.ar    1  LIG1        0.1659
     21 C           2.6503    0.1246    2.4717 C.ar    1  LIG1        0.1969
     22 C          -1.5494   -1.9927   -0.2394 C.ar    1  LIG1        0.0227
     23 C           2.7964    1.0426    3.5009 C.ar    1  LIG1       -0.0160
     24 C           1.0682    3.6448    0.9312 C.ar    1  LIG1        0.1702
     25 C          -1.0721   -3.1960   -0.7797 C.ar    1  LIG1       -0.0252
     26 C           1.1672   -0.2430    4.7299 C.ar    1  LIG1       -0.0322
     27 C           2.0353    0.8497    4.6493 C.ar    1  LIG1       -0.0541
     28 C          -2.8184   -2.0105    0.3579 C.ar    1  LIG1       -0.0328
     29 C          -2.6521    2.6679   -0.9736 C.3     1  LIG1        0.1143
     30 C          -1.8634   -4.3416   -0.7164 C.ar    1  LIG1        0.0708
     31 C           1.0940   -1.0996    3.6338 C.ar    1  LIG1        0.0327
     32 C           1.4442    4.9614    0.6279 C.ar    1  LIG1        0.1621
     33 C           0.3992    3.3764    2.1341 C.ar    1  LIG1       -0.0157
     34 C          -3.5337   -3.1923    0.3978 C.ar    1  LIG1        0.0289
     35 C           0.3555   -0.5112    5.9578 C.3     1  LIG1       -0.0383
     36 C          -2.5110    2.4855   -2.4846 C.3     1  LIG1        0.0783
     37 C           1.0615    6.0061    1.4759 C.ar    1  LIG1       -0.0163
     38 C           0.0357    4.4221    2.9843 C.ar    1  LIG1       -0.0581
     39 C           0.3548    5.7356    2.6491 C.ar    1  LIG1       -0.0581
     40 C          -1.4127   -5.5961   -1.3242 C.ar    1  LIG1        0.0207
     41 C           3.1773    6.1314   -0.4346 C.3     1  LIG1        0.0790
     42 H          -3.6408    2.4103   -4.0627 H       1  LIG1        0.2095
     43 H           2.9969    0.8667   -1.0052 H       1  LIG1        0.1754
     44 H          -1.4007   -8.5420   -2.0983 H       1  LIG1        0.1651
     45 H           3.4874    1.8760    3.4238 H       1  LIG1        0.0653
     46 H          -0.0936   -3.2295   -1.2544 H       1  LIG1        0.0646
     47 H           2.1339    1.5448    5.4799 H       1  LIG1        0.0622
     48 H          -3.2447   -1.1127    0.7971 H       1  LIG1        0.0640
     49 H          -3.1516    3.6260   -0.7853 H       1  LIG1        0.0720
     50 H          -3.3127    1.9143   -0.5266 H       1  LIG1        0.0720
     51 H           0.4443   -1.9720    3.6419 H       1  LIG1        0.0833
     52 H           0.1317    2.3638    2.4207 H       1  LIG1        0.0655
     53 H          -4.5149   -3.2397    0.8616 H       1  LIG1        0.0830
     54 H           0.4989    0.2706    6.7109 H       1  LIG1        0.0278
     55 H           0.6516   -1.4662    6.4037 H       1  LIG1        0.0278
     56 H          -0.7096   -0.5445    5.7081 H       1  LIG1        0.0278
     57 H          -1.8645    3.2649   -2.9024 H       1  LIG1        0.0591
     58 H          -2.0588    1.5185   -2.7267 H       1  LIG1        0.0591
     59 H           1.2850    7.0391    1.2285 H       1  LIG1        0.0655
     60 H          -0.5109    4.2123    3.9004 H       1  LIG1        0.0619
     61 H           0.0500    6.5521    3.2993 H       1  LIG1        0.0619
     62 H           3.8702    5.9671   -1.2652 H       1  LIG1        0.0660
     63 H           3.7426    6.0224    0.4983 H       1  LIG1        0.0660
     64 H           2.7754    7.1449   -0.5288 H       1  LIG1        0.0660
@<TRIPOS>BOND
     1     1     4    2
     2     1     5    2
     3     1     8    1
     4     1    21    1
     5     2    18    1
     6     2    24    1
     7     3    19    1
     8     3    29    1
     9     6    32    1
    10     6    41    1
    11     7    36    1
    12     8    17    1
    13     9    17   ar
    14     9    20   ar
    15    10    19   ar
    16    10    20   ar
    17    11    21   ar
    18    11    31   ar
    19    12    30   ar
    20    12    34   ar
    21    13    15   ar
    22    13    40   ar
    23    14    16   ar
    24    14    40   ar
    25    15    16   ar
    26    17    18   ar
    27    18    19   ar
    28    20    22    1
    29    21    23   ar
    30    22    25   ar
    31    22    28   ar
    32    23    27   ar
    33    24    32   ar
    34    24    33   ar
    35    25    30   ar
    36    26    27   ar
    37    26    31   ar
    38    26    35    1
    39    28    34   ar
    40    29    36    1
    41    30    40    1
    42    32    37   ar
    43    33    38   ar
    44    37    39   ar
    45    38    39   ar
    46     7    42    1
    47     8    43    1
    48    15    44    1
    49    23    45    1
    50    25    46    1
    51    27    47    1
    52    28    48    1
    53    29    49    1
    54    29    50    1
    55    31    51    1
    56    33    52    1
    57    34    53    1
    58    35    54    1
    59    35    55    1
    60    35    56    1
    61    36    57    1
    62    36    58    1
    63    37    59    1
    64    38    60    1
    65    39    61    1
    66    41    62    1
    67    41    63    1
    68    41    64    1
@<TRIPOS>MOLECULE
6433095
 64 68 0 0 0
SMALL
GASTEIGER

@<TRIPOS>ATOM
      1 S           3.3006    0.5300   -2.0854 S.O2    1  LIG1        0.0908
      2 O           1.5136    2.7154    0.0758 O.3     1  LIG1       -0.4435
      3 O          -1.1454    2.7080    0.3462 O.3     1  LIG1       -0.4715
      4 O           4.5799    1.1991   -1.9470 O.2     1  LIG1       -0.1484
      5 O           2.2051    1.1620   -2.7927 O.2     1  LIG1       -0.1484
      6 O           3.4701    4.6946   -0.3839 O.3     1  LIG1       -0.4914
      7 O          -2.7174    4.5583    1.9474 O.3     1  LIG1       -0.3917
      8 N           2.8204    0.1424   -0.5101 N.pl3   1  LIG1       -0.1950
      9 N           0.7487   -0.8535   -0.3538 N.ar    1  LIG1       -0.2073
     10 N          -1.2461    0.3679    0.1095 N.ar    1  LIG1       -0.1899
     11 N           4.8575   -1.5058   -2.8274 N.ar    1  LIG1       -0.2351
     12 N          -2.7674   -4.4509    0.1879 N.ar    1  LIG1       -0.2552
     13 N          -5.0962   -4.5307    1.8995 N.ar    1  LIG1       -0.5621
     14 N          -5.1463   -2.2714    1.9796 N.ar    1  LIG1       -0.1535
     15 N          -6.1228   -4.0312    2.5968 N.ar    1  LIG1       -0.3597
     16 N          -6.1958   -2.6978    2.6669 N.ar    1  LIG1       -0.0878
     17 C           1.4333    0.2991   -0.2552 C.ar    1  LIG1        0.1882
     18 C           0.8570    1.5228    0.0237 C.ar    1  LIG1        0.2307
     19 C          -0.5134    1.4956    0.1524 C.ar    1  LIG1        0.2641
     20 C          -0.5758   -0.7736   -0.1267 C.ar    1  LIG1        0.1659
     21 C           3.5661   -1.0845   -2.8154 C.ar    1  LIG1        0.1969
     22 C          -1.3402   -2.0302   -0.0553 C.ar    1  LIG1        0.0227
     23 C           2.5042   -1.7662   -3.3884 C.ar    1  LIG1       -0.0160
     24 C           2.5139    2.9001    1.0029 C.ar    1  LIG1        0.1702
     25 C          -2.5697   -2.0929    0.6243 C.ar    1  LIG1       -0.0252
     26 C           4.1008   -3.4441   -4.0669 C.ar    1  LIG1       -0.0322
     27 C           2.7845   -2.9727   -4.0223 C.ar    1  LIG1       -0.0541
     28 C          -0.8586   -3.2187   -0.6173 C.ar    1  LIG1       -0.0328
     29 C          -2.5655    2.6200    0.5008 C.3     1  LIG1        0.1143
     30 C          -3.2426   -3.3068    0.7418 C.ar    1  LIG1        0.0708
     31 C           5.0910   -2.6728   -3.4619 C.ar    1  LIG1        0.0327
     32 C           3.4799    3.8754    0.7150 C.ar    1  LIG1        0.1621
     33 C           2.6107    2.1656    2.1935 C.ar    1  LIG1       -0.0157
     34 C          -1.5978   -4.3812   -0.4776 C.ar    1  LIG1        0.0289
     35 C           4.4577   -4.7048   -4.7897 C.3     1  LIG1       -0.0383
     36 C          -3.1077    4.0370    0.6780 C.3     1  LIG1        0.0783
     37 C           4.5912    4.0183    1.5484 C.ar    1  LIG1       -0.0163
     38 C           3.7124    2.3337    3.0347 C.ar    1  LIG1       -0.0581
     39 C           4.7105    3.2469    2.7036 C.ar    1  LIG1       -0.0581
     40 C          -4.4840   -3.3921    1.5167 C.ar    1  LIG1        0.0207
     41 C           2.2156    5.3266   -0.6351 C.3     1  LIG1        0.0790
     42 H          -2.9508    5.5021    1.9526 H       1  LIG1        0.2095
     43 H           3.4508    0.6283    0.1269 H       1  LIG1        0.1754
     44 H          -6.8062   -4.6279    3.0545 H       1  LIG1        0.1651
     45 H           1.4959   -1.3682   -3.3563 H       1  LIG1        0.0653
     46 H          -2.9799   -1.1999    1.0915 H       1  LIG1        0.0646
     47 H           1.9794   -3.5317   -4.4928 H       1  LIG1        0.0622
     48 H           0.0869   -3.2456   -1.1514 H       1  LIG1        0.0640
     49 H          -2.8056    2.0186    1.3855 H       1  LIG1        0.0720
     50 H          -3.0119    2.1799   -0.3987 H       1  LIG1        0.0720
     51 H           6.1347   -2.9784   -3.4826 H       1  LIG1        0.0833
     52 H           1.8463    1.4503    2.4841 H       1  LIG1        0.0655
     53 H          -1.2517   -5.3197   -0.9020 H       1  LIG1        0.0830
     54 H           3.5668   -5.2995   -5.0162 H       1  LIG1        0.0278
     55 H           5.1205   -5.3237   -4.1764 H       1  LIG1        0.0278
     56 H           4.9606   -4.4663   -5.7324 H       1  LIG1        0.0278
     57 H          -2.7115    4.7013   -0.0972 H       1  LIG1        0.0591
     58 H          -4.2006    4.0365    0.6357 H       1  LIG1        0.0591
     59 H           5.3623    4.7423    1.2967 H       1  LIG1        0.0655
     60 H           3.7956    1.7473    3.9468 H       1  LIG1        0.0619
     61 H           5.5767    3.3693    3.3489 H       1  LIG1        0.0619
     62 H           2.4186    6.3048   -1.0819 H       1  LIG1        0.0660
     63 H           1.6331    5.4953    0.2785 H       1  LIG1        0.0660
     64 H           1.6390    4.7457   -1.3610 H       1  LIG1        0.0660
@<TRIPOS>BOND
     1     1     4    2
     2     1     5    2
     3     1     8    1
     4     1    21    1
     5     2    18    1
     6     2    24    1
     7     3    19    1
     8     3    29    1
     9     6    32    1
    10     6    41    1
    11     7    36    1
    12     8    17    1
    13     9    17   ar
    14     9    20   ar
    15    10    19   ar
    16    10    20   ar
    17    11    21   ar
    18    11    31   ar
    19    12    30   ar
    20    12    34   ar
    21    13    15   ar
    22    13    40   ar
    23    14    16   ar
    24    14    40   ar
    25    15    16   ar
    26    17    18   ar
    27    18    19   ar
    28    20    22    1
    29    21    23   ar
    30    22    25   ar
    31    22    28   ar
    32    23    27   ar
    33    24    32   ar
    34    24    33   ar
    35    25    30   ar
    36    26    27   ar
    37    26    31   ar
    38    26    35    1
    39    28    34   ar
    40    29    36    1
    41    30    40    1
    42    32    37   ar
    43    33    38   ar
    44    37    39   ar
    45    38    39   ar
    46     7    42    1
    47     8    43    1
    48    15    44    1
    49    23    45    1
    50    25    46    1
    51    27    47    1
    52    28    48    1
    53    29    49    1
    54    29    50    1
    55    31    51    1
    56    33    52    1
    57    34    53    1
    58    35    54    1
    59    35    55    1
    60    35    56    1
    61    36    57    1
    62    36    58    1
    63    37    59    1
    64    38    60    1
    65    39    61    1
    66    41    62    1
    67    41    63    1
    68    41    64    1
@<TRIPOS>MOLECULE
6433095
 64 68 0 0 0
SMALL
GASTEIGER

@<TRIPOS>ATOM
      1 S           3.2718    0.5230   -1.9696 S.O2    1  LIG1        0.0908
      2 O           1.3881    2.7310    0.1226 O.3     1  LIG1       -0.4435
      3 O          -1.2869    2.6681    0.2410 O.3     1  LIG1       -0.4715
      4 O           4.5542    1.1804   -1.8185 O.2     1  LIG1       -0.1484
      5 O           2.1897    1.1608   -2.6955 O.2     1  LIG1       -0.1484
      6 O           3.4041    4.6383   -0.4343 O.3     1  LIG1       -0.4914
      7 O          -3.3187    3.6212   -1.7363 O.3     1  LIG1       -0.3917
      8 N           2.7689    0.1567   -0.3936 N.pl3   1  LIG1       -0.1950
      9 N           0.7170   -0.8707   -0.2590 N.ar    1  LIG1       -0.2073
     10 N          -1.3213    0.3290    0.0240 N.ar    1  LIG1       -0.1899
     11 N           4.8315   -1.5115   -2.7193 N.ar    1  LIG1       -0.2351
     12 N          -2.8839   -4.4443   -0.0259 N.ar    1  LIG1       -0.2552
     13 N          -5.5467   -2.3101   -1.3914 N.ar    1  LIG1       -0.5621
     14 N          -5.6213   -4.4828   -0.7600 N.ar    1  LIG1       -0.1535
     15 N          -6.7347   -2.9025   -1.5909 N.ar    1  LIG1       -0.3597
     16 N          -6.8250   -4.1832   -1.2269 N.ar    1  LIG1       -0.0878
     17 C           1.3754    0.2988   -0.1684 C.ar    1  LIG1        0.1882
     18 C           0.7641    1.5204    0.0530 C.ar    1  LIG1        0.2307
     19 C          -0.6126    1.4701    0.1016 C.ar    1  LIG1        0.2641
     20 C          -0.6199   -0.8055   -0.1347 C.ar    1  LIG1        0.1659
     21 C           3.5345   -1.0970   -2.6898 C.ar    1  LIG1        0.1969
     22 C          -1.3833   -2.0615   -0.1261 C.ar    1  LIG1        0.0227
     23 C           2.4763   -1.7761   -3.2696 C.ar    1  LIG1       -0.0160
     24 C           2.4113    2.9197    1.0229 C.ar    1  LIG1        0.1702
     25 C          -2.7344   -2.0931   -0.5113 C.ar    1  LIG1       -0.0252
     26 C           4.0778   -3.4329   -3.9885 C.ar    1  LIG1       -0.0322
     27 C           2.7592   -2.9702   -3.9253 C.ar    1  LIG1       -0.0541
     28 C          -0.8082   -3.2638    0.3007 C.ar    1  LIG1       -0.0328
     29 C          -2.7119    2.5643    0.3607 C.3     1  LIG1        0.1143
     30 C          -3.4478   -3.2880   -0.4542 C.ar    1  LIG1        0.0708
     31 C           5.0671   -2.6660   -3.3758 C.ar    1  LIG1        0.0327
     32 C           3.4002    3.8570    0.6913 C.ar    1  LIG1        0.1621
     33 C           2.5013    2.2220    2.2361 C.ar    1  LIG1       -0.0157
     34 C          -1.5872   -4.4076    0.3405 C.ar    1  LIG1        0.0289
     35 C           4.4370   -4.6765   -4.7388 C.3     1  LIG1       -0.0383
     36 C          -3.3990    2.4035   -0.9969 C.3     1  LIG1        0.0783
     37 C           4.5254    3.9941    1.5073 C.ar    1  LIG1       -0.0163
     38 C           3.6183    2.3842    3.0581 C.ar    1  LIG1       -0.0581
     39 C           4.6375    3.2572    2.6855 C.ar    1  LIG1       -0.0581
     40 C          -4.8526   -3.3430   -0.8651 C.ar    1  LIG1        0.0207
     41 C           2.1640    5.2894   -0.7073 C.3     1  LIG1        0.0790
     42 H          -3.6523    3.4338   -2.6304 H       1  LIG1        0.2095
     43 H           3.3862    0.6614    0.2442 H       1  LIG1        0.1754
     44 H          -7.5254   -2.4102   -1.9973 H       1  LIG1        0.1651
     45 H           1.4665   -1.3836   -3.2288 H       1  LIG1        0.0653
     46 H          -3.2266   -1.1861   -0.8541 H       1  LIG1        0.0646
     47 H           1.9537   -3.5255   -4.3999 H       1  LIG1        0.0622
     48 H           0.2292   -3.3085    0.6207 H       1  LIG1        0.0640
     49 H          -3.0423    3.5049    0.8163 H       1  LIG1        0.0720
     50 H          -2.9932    1.7632    1.0547 H       1  LIG1        0.0720
     51 H           6.1124   -2.9646   -3.4102 H       1  LIG1        0.0833
     52 H           1.7197    1.5383    2.5553 H       1  LIG1        0.0655
     53 H          -1.1768   -5.3530    0.6850 H       1  LIG1        0.0830
     54 H           3.5485   -5.2730   -4.9702 H       1  LIG1        0.0278
     55 H           5.1093   -5.3029   -4.1436 H       1  LIG1        0.0278
     56 H           4.9305   -4.4162   -5.6809 H       1  LIG1        0.0278
     57 H          -2.9401    1.6154   -1.5998 H       1  LIG1        0.0591
     58 H          -4.4590    2.1733   -0.8524 H       1  LIG1        0.0591
     59 H           5.3141    4.6868    1.2229 H       1  LIG1        0.0655
     60 H           3.6977    1.8247    3.9872 H       1  LIG1        0.0619
     61 H           5.5156    3.3755    3.3156 H       1  LIG1        0.0619
     62 H           2.3892    6.2445   -1.1917 H       1  LIG1        0.0660
     63 H           1.5897    5.5073    0.2008 H       1  LIG1        0.0660
     64 H           1.5718    4.6944   -1.4087 H       1  LIG1        0.0660
@<TRIPOS>BOND
     1     1     4    2
     2     1     5    2
     3     1     8    1
     4     1    21    1
     5     2    18    1
     6     2    24    1
     7     3    19    1
     8     3    29    1
     9     6    32    1
    10     6    41    1
    11     7    36    1
    12     8    17    1
    13     9    17   ar
    14     9    20   ar
    15    10    19   ar
    16    10    20   ar
    17    11    21   ar
    18    11    31   ar
    19    12    30   ar
    20    12    34   ar
    21    13    15   ar
    22    13    40   ar
    23    14    16   ar
    24    14    40   ar
    25    15    16   ar
    26    17    18   ar
    27    18    19   ar
    28    20    22    1
    29    21    23   ar
    30    22    25   ar
    31    22    28   ar
    32    23    27   ar
    33    24    32   ar
    34    24    33   ar
    35    25    30   ar
    36    26    27   ar
    37    26    31   ar
    38    26    35    1
    39    28    34   ar
    40    29    36    1
    41    30    40    1
    42    32    37   ar
    43    33    38   ar
    44    37    39   ar
    45    38    39   ar
    46     7    42    1
    47     8    43    1
    48    15    44    1
    49    23    45    1
    50    25    46    1
    51    27    47    1
    52    28    48    1
    53    29    49    1
    54    29    50    1
    55    31    51    1
    56    33    52    1
    57    34    53    1
    58    35    54    1
    59    35    55    1
    60    35    56    1
    61    36    57    1
    62    36    58    1
    63    37    59    1
    64    38    60    1
    65    39    61    1
    66    41    62    1
    67    41    63    1
    68    41    64    1
@<TRIPOS>MOLECULE
6433095
 64 68 0 0 0
SMALL
GASTEIGER

@<TRIPOS>ATOM
      1 S           3.3356    0.4446   -1.8723 S.O2    1  LIG1        0.0908
      2 O           1.3587    2.7307    0.0784 O.3     1  LIG1       -0.4435
      3 O          -1.3124    2.7106    0.0572 O.3     1  LIG1       -0.4715
      4 O           4.6398    1.0380   -1.6360 O.2     1  LIG1       -0.1484
      5 O           2.3415    1.1211   -2.6784 O.2     1  LIG1       -0.1484
      6 O           3.3017    4.7287   -0.4164 O.3     1  LIG1       -0.4914
      7 O          -3.4397    3.5530   -1.8668 O.3     1  LIG1       -0.3917
      8 N           2.7219    0.1102   -0.3378 N.pl3   1  LIG1       -0.1950
      9 N           0.6469   -0.8681   -0.2381 N.ar    1  LIG1       -0.2073
     10 N          -1.3809    0.3662   -0.0784 N.ar    1  LIG1       -0.1899
     11 N           3.2143   -2.2344   -1.9352 N.ar    1  LIG1       -0.2351
     12 N          -2.9800   -4.3849    0.2110 N.ar    1  LIG1       -0.2552
     13 N          -5.8287   -4.2605   -0.3038 N.ar    1  LIG1       -0.5621
     14 N          -5.5338   -2.3648   -1.5012 N.ar    1  LIG1       -0.1535
     15 N          -6.9345   -3.8247   -0.9182 N.ar    1  LIG1       -0.3597
     16 N          -6.8077   -2.7052   -1.6391 N.ar    1  LIG1       -0.0878
     17 C           1.3228    0.2902   -0.1904 C.ar    1  LIG1        0.1882
     18 C           0.7264    1.5261   -0.0154 C.ar    1  LIG1        0.2307
     19 C          -0.6539    1.4971   -0.0145 C.ar    1  LIG1        0.2641
     20 C          -0.6903   -0.7821   -0.1695 C.ar    1  LIG1        0.1659
     21 C           3.6508   -1.1483   -2.6246 C.ar    1  LIG1        0.1969
     22 C          -1.4612   -2.0308   -0.0893 C.ar    1  LIG1        0.0227
     23 C           4.3634   -1.1945   -3.8136 C.ar    1  LIG1       -0.0160
     24 C           2.3925    2.9062    0.9706 C.ar    1  LIG1        0.1702
     25 C          -2.8099   -2.0822   -0.4755 C.ar    1  LIG1       -0.0252
     26 C           4.1951   -3.5962   -3.6859 C.ar    1  LIG1       -0.0322
     27 C           4.6357   -2.4479   -4.3510 C.ar    1  LIG1       -0.0541
     28 C          -0.8928   -3.2019    0.4259 C.ar    1  LIG1       -0.0328
     29 C          -2.7277    2.6328    0.2647 C.3     1  LIG1        0.1143
     30 C          -3.5338   -3.2613   -0.3118 C.ar    1  LIG1        0.0708
     31 C           3.4937   -3.4311   -2.4923 C.ar    1  LIG1        0.0327
     32 C           3.3526    3.8792    0.6577 C.ar    1  LIG1        0.1621
     33 C           2.5275    2.1618    2.1524 C.ar    1  LIG1       -0.0157
     34 C          -1.6798   -4.3318    0.5611 C.ar    1  LIG1        0.0289
     35 C           4.4667   -4.9662   -4.2226 C.3     1  LIG1       -0.0383
     36 C          -3.5029    2.3974   -1.0339 C.3     1  LIG1        0.0783
     37 C           4.5047    3.9916    1.4406 C.ar    1  LIG1       -0.0163
     38 C           3.6744    2.2931    2.9387 C.ar    1  LIG1       -0.0581
     39 C           4.6715    3.1938    2.5723 C.ar    1  LIG1       -0.0581
     40 C          -4.9464   -3.3188   -0.6938 C.ar    1  LIG1        0.0207
     41 C           2.0262    5.3305   -0.6397 C.3     1  LIG1        0.0790
     42 H          -3.8408    3.3095   -2.7188 H       1  LIG1        0.2095
     43 H           3.3181    0.5580    0.3517 H       1  LIG1        0.1754
     44 H          -7.8232   -4.3101   -0.8377 H       1  LIG1        0.1651
     45 H           4.7014   -0.2866   -4.3014 H       1  LIG1        0.0653
     46 H          -3.2923   -1.1993   -0.8878 H       1  LIG1        0.0646
     47 H           5.1926   -2.5233   -5.2818 H       1  LIG1        0.0622
     48 H           0.1470   -3.2282    0.7422 H       1  LIG1        0.0640
     49 H          -3.0219    3.6045    0.6793 H       1  LIG1        0.0720
     50 H          -2.9741    1.8800    1.0248 H       1  LIG1        0.0720
     51 H           3.1288   -4.2889   -1.9328 H       1  LIG1        0.0833
     52 H           1.7659    1.4527    2.4646 H       1  LIG1        0.0655
     53 H          -1.2740   -5.2501    0.9773 H       1  LIG1        0.0830
     54 H           5.0196   -4.9245   -5.1666 H       1  LIG1        0.0278
     55 H           3.5257   -5.4934   -4.4078 H       1  LIG1        0.0278
     56 H           5.0662   -5.5394   -3.5078 H       1  LIG1        0.0278
     57 H          -3.1058    1.5523   -1.6033 H       1  LIG1        0.0591
     58 H          -4.5578    2.2106   -0.8062 H       1  LIG1        0.0591
     59 H           5.2722    4.7114    1.1669 H       1  LIG1        0.0655
     60 H           3.7950    1.6865    3.8320 H       1  LIG1        0.0619
     61 H           5.5731    3.2866    3.1713 H       1  LIG1        0.0619
     62 H           2.1965    6.3231   -1.0704 H       1  LIG1        0.0660
     63 H           1.4530    5.4683    0.2861 H       1  LIG1        0.0660
     64 H           1.4565    4.7476   -1.3682 H       1  LIG1        0.0660
@<TRIPOS>BOND
     1     1     4    2
     2     1     5    2
     3     1     8    1
     4     1    21    1
     5     2    18    1
     6     2    24    1
     7     3    19    1
     8     3    29    1
     9     6    32    1
    10     6    41    1
    11     7    36    1
    12     8    17    1
    13     9    17   ar
    14     9    20   ar
    15    10    19   ar
    16    10    20   ar
    17    11    21   ar
    18    11    31   ar
    19    12    30   ar
    20    12    34   ar
    21    13    15   ar
    22    13    40   ar
    23    14    16   ar
    24    14    40   ar
    25    15    16   ar
    26    17    18   ar
    27    18    19   ar
    28    20    22    1
    29    21    23   ar
    30    22    25   ar
    31    22    28   ar
    32    23    27   ar
    33    24    32   ar
    34    24    33   ar
    35    25    30   ar
    36    26    27   ar
    37    26    31   ar
    38    26    35    1
    39    28    34   ar
    40    29    36    1
    41    30    40    1
    42    32    37   ar
    43    33    38   ar
    44    37    39   ar
    45    38    39   ar
    46     7    42    1
    47     8    43    1
    48    15    44    1
    49    23    45    1
    50    25    46    1
    51    27    47    1
    52    28    48    1
    53    29    49    1
    54    29    50    1
    55    31    51    1
    56    33    52    1
    57    34    53    1
    58    35    54    1
    59    35    55    1
    60    35    56    1
    61    36    57    1
    62    36    58    1
    63    37    59    1
    64    38    60    1
    65    39    61    1
    66    41    62    1
    67    41    63    1
    68    41    64    1
@<TRIPOS>MOLECULE
6433095
 64 68 0 0 0
SMALL
GASTEIGER

@<TRIPOS>ATOM
      1 S           3.6362    0.2523    0.9849 S.O2    1  LIG1        0.0908
      2 O           1.4075    2.7445   -0.0077 O.3     1  LIG1       -0.4435
      3 O          -1.4180    2.7556   -0.2709 O.3     1  LIG1       -0.4715
      4 O           4.2288    1.5799    0.9979 O.2     1  LIG1       -0.1484
      5 O           4.5038   -0.9060    0.9253 O.2     1  LIG1       -0.1484
      6 O           2.1134    5.2443   -0.5361 O.3     1  LIG1       -0.4914
      7 O          -5.0193    2.9867   -0.8643 O.3     1  LIG1       -0.3917
      8 N           2.6712    0.2617   -0.4062 N.pl3   1  LIG1       -0.1950
      9 N           0.6136   -0.7801   -0.2920 N.ar    1  LIG1       -0.2073
     10 N          -1.4336    0.4215   -0.2134 N.ar    1  LIG1       -0.1899
     11 N           1.7865   -0.9423    2.4916 N.ar    1  LIG1       -0.2351
     12 N          -2.8840   -4.4170    0.1450 N.ar    1  LIG1       -0.2552
     13 N          -5.7596   -4.3565    0.3754 N.ar    1  LIG1       -0.5621
     14 N          -5.7308   -2.1015    0.5399 N.ar    1  LIG1       -0.1535
     15 N          -6.9630   -3.8075    0.5726 N.ar    1  LIG1       -0.3597
     16 N          -6.9939   -2.4749    0.6816 N.ar    1  LIG1       -0.0878
     17 C           1.2627    0.3904   -0.2409 C.ar    1  LIG1        0.1882
     18 C           0.6474    1.6162   -0.1094 C.ar    1  LIG1        0.2307
     19 C          -0.7268    1.5667   -0.2144 C.ar    1  LIG1        0.2641
     20 C          -0.7244   -0.7218   -0.2204 C.ar    1  LIG1        0.1659
     21 C           2.6226    0.1257    2.4529 C.ar    1  LIG1        0.1969
     22 C          -1.4662   -1.9903   -0.1142 C.ar    1  LIG1        0.0227
     23 C           2.7646    1.0512    3.4760 C.ar    1  LIG1       -0.0160
     24 C           1.0572    3.7055    0.9231 C.ar    1  LIG1        0.1702
     25 C          -2.8629   -2.0114    0.0392 C.ar    1  LIG1       -0.0252
     26 C           1.1373   -0.2296    4.7129 C.ar    1  LIG1       -0.0322
     27 C           2.0018    0.8651    4.6245 C.ar    1  LIG1       -0.0541
     28 C          -0.8082   -3.2274   -0.1344 C.ar    1  LIG1       -0.0328
     29 C          -2.6259    2.7135   -1.0302 C.3     1  LIG1        0.1143
     30 C          -3.5338   -3.2258    0.1679 C.ar    1  LIG1        0.0708
     31 C           1.0694   -1.0953    3.6239 C.ar    1  LIG1        0.0327
     32 C           1.4379    5.0244    0.6379 C.ar    1  LIG1        0.1621
     33 C           0.4026    3.4204    2.1304 C.ar    1  LIG1       -0.0157
     34 C          -1.5454   -4.3917   -0.0070 C.ar    1  LIG1        0.0289
     35 C           0.3255   -0.4923    5.9418 C.3     1  LIG1       -0.0383
     36 C          -3.8203    2.9009   -0.1048 C.3     1  LIG1        0.0783
     37 C           1.0739    6.0567    1.5085 C.ar    1  LIG1       -0.0163
     38 C           0.0583    4.4533    3.0038 C.ar    1  LIG1       -0.0581
     39 C           0.3816    5.7705    2.6866 C.ar    1  LIG1       -0.0581
     40 C          -4.9875   -3.2516    0.3533 C.ar    1  LIG1        0.0207
     41 C           3.1658    6.1992   -0.4294 C.3     1  LIG1        0.0790
     42 H          -5.7509    3.0855   -0.2299 H       1  LIG1        0.2095
     43 H           3.0089    1.0704   -0.9325 H       1  LIG1        0.1754
     44 H          -7.8078   -4.3684    0.6371 H       1  LIG1        0.1651
     45 H           3.4568    1.8838    3.3977 H       1  LIG1        0.0653
     46 H          -3.4227   -1.0792    0.0641 H       1  LIG1        0.0646
     47 H           2.0983    1.5659    5.4511 H       1  LIG1        0.0622
     48 H           0.2723   -3.2882   -0.2420 H       1  LIG1        0.0640
     49 H          -2.7405    1.8168   -1.6529 H       1  LIG1        0.0720
     50 H          -2.5896    3.5490   -1.7397 H       1  LIG1        0.0720
     51 H           0.4217   -1.9694    3.6383 H       1  LIG1        0.0833
     52 H           0.1322    2.4051    2.4038 H       1  LIG1        0.0655
     53 H          -1.0608   -5.3643   -0.0196 H       1  LIG1        0.0830
     54 H           0.4673    0.2936    6.6910 H       1  LIG1        0.0278
     55 H           0.6230   -1.4444    6.3932 H       1  LIG1        0.0278
     56 H          -0.7395   -0.5290    5.6918 H       1  LIG1        0.0278
     57 H          -3.8988    2.0660    0.5979 H       1  LIG1        0.0591
     58 H          -3.7062    3.8197    0.4813 H       1  LIG1        0.0591
     59 H           1.3014    7.0921    1.2756 H       1  LIG1        0.0655
     60 H          -0.4754    4.2308    3.9242 H       1  LIG1        0.0619
     61 H           0.0921    6.5773    3.3552 H       1  LIG1        0.0619
     62 H           3.8445    6.0445   -1.2735 H       1  LIG1        0.0660
     63 H           3.7448    6.0695    0.4928 H       1  LIG1        0.0660
     64 H           2.7698    7.2168   -0.4996 H       1  LIG1        0.0660
@<TRIPOS>BOND
     1     1     4    2
     2     1     5    2
     3     1     8    1
     4     1    21    1
     5     2    18    1
     6     2    24    1
     7     3    19    1
     8     3    29    1
     9     6    32    1
    10     6    41    1
    11     7    36    1
    12     8    17    1
    13     9    17   ar
    14     9    20   ar
    15    10    19   ar
    16    10    20   ar
    17    11    21   ar
    18    11    31   ar
    19    12    30   ar
    20    12    34   ar
    21    13    15   ar
    22    13    40   ar
    23    14    16   ar
    24    14    40   ar
    25    15    16   ar
    26    17    18   ar
    27    18    19   ar
    28    20    22    1
    29    21    23   ar
    30    22    25   ar
    31    22    28   ar
    32    23    27   ar
    33    24    32   ar
    34    24    33   ar
    35    25    30   ar
    36    26    27   ar
    37    26    31   ar
    38    26    35    1
    39    28    34   ar
    40    29    36    1
    41    30    40    1
    42    32    37   ar
    43    33    38   ar
    44    37    39   ar
    45    38    39   ar
    46     7    42    1
    47     8    43    1
    48    15    44    1
    49    23    45    1
    50    25    46    1
    51    27    47    1
    52    28    48    1
    53    29    49    1
    54    29    50    1
    55    31    51    1
    56    33    52    1
    57    34    53    1
    58    35    54    1
    59    35    55    1
    60    35    56    1
    61    36    57    1
    62    36    58    1
    63    37    59    1
    64    38    60    1
    65    39    61    1
    66    41    62    1
    67    41    63    1
    68    41    64    1
@<TRIPOS>MOLECULE
6433095
 64 68 0 0 0
SMALL
GASTEIGER

@<TRIPOS>ATOM
      1 S           3.4521    0.4972   -1.6263 S.O2    1  LIG1        0.0908
      2 O           1.3126    2.8033   -0.0090 O.3     1  LIG1       -0.4435
      3 O          -1.4911    2.7430   -0.4965 O.3     1  LIG1       -0.4715
      4 O           4.6395   -0.3323   -1.5376 O.2     1  LIG1       -0.1484
      5 O           3.6024    1.9171   -1.8777 O.2     1  LIG1       -0.1484
      6 O           2.0461    5.2735   -0.4878 O.3     1  LIG1       -0.4914
      7 O          -3.8927    3.9007    0.8559 O.3     1  LIG1       -0.3917
      8 N           2.6647    0.3508   -0.1155 N.pl3   1  LIG1       -0.1950
      9 N           0.6402   -0.7513   -0.2695 N.ar    1  LIG1       -0.2073
     10 N          -1.4233    0.4014   -0.5271 N.ar    1  LIG1       -0.1899
     11 N           1.2619    0.5291   -3.1527 N.ar    1  LIG1       -0.2351
     12 N          -2.8967   -4.3807    0.0242 N.ar    1  LIG1       -0.2552
     13 N          -5.7518   -4.3399   -0.4422 N.ar    1  LIG1       -0.5621
     14 N          -5.5695   -2.3477   -1.4967 N.ar    1  LIG1       -0.1535
     15 N          -6.8977   -3.8923   -0.9670 N.ar    1  LIG1       -0.3597
     16 N          -6.8368   -2.7186   -1.6053 N.ar    1  LIG1       -0.0878
     17 C           1.2400    0.4468   -0.1800 C.ar    1  LIG1        0.1882
     18 C           0.5857    1.6619   -0.1754 C.ar    1  LIG1        0.2307
     19 C          -0.7677    1.5735   -0.4160 C.ar    1  LIG1        0.2641
     20 C          -0.6938   -0.7214   -0.4070 C.ar    1  LIG1        0.1659
     21 C           2.3919   -0.1871   -2.9009 C.ar    1  LIG1        0.1969
     22 C          -1.4322   -1.9919   -0.3092 C.ar    1  LIG1        0.0227
     23 C           2.7834   -1.3148   -3.6052 C.ar    1  LIG1       -0.0160
     24 C           0.8903    3.7578    0.8968 C.ar    1  LIG1        0.1702
     25 C          -2.7939   -2.0707   -0.6466 C.ar    1  LIG1       -0.0252
     26 C           0.7771   -1.0528   -4.9232 C.ar    1  LIG1       -0.0322
     27 C           1.9529   -1.7521   -4.6336 C.ar    1  LIG1       -0.0541
     28 C          -0.8281   -3.1555    0.1844 C.ar    1  LIG1       -0.0328
     29 C          -2.8577    2.5875   -0.8907 C.3     1  LIG1        0.1143
     30 C          -3.4907   -3.2630   -0.4653 C.ar    1  LIG1        0.0708
     31 C           0.4803    0.0688   -4.1523 C.ar    1  LIG1        0.0327
     32 C           1.2928    5.0809    0.6412 C.ar    1  LIG1        0.1621
     33 C           0.1599    3.4597    2.0546 C.ar    1  LIG1       -0.0157
     34 C          -1.5879   -4.3029    0.3348 C.ar    1  LIG1        0.0289
     35 C          -0.1470   -1.4892   -6.0165 C.3     1  LIG1       -0.0383
     36 C          -3.5982    3.8762   -0.5418 C.3     1  LIG1        0.0783
     37 C           0.8960    6.0995    1.5127 C.ar    1  LIG1       -0.0163
     38 C          -0.2309    4.4845    2.9166 C.ar    1  LIG1       -0.0581
     39 C           0.1300    5.8013    2.6424 C.ar    1  LIG1       -0.0581
     40 C          -4.9174   -3.3397   -0.7895 C.ar    1  LIG1        0.0207
     41 C           2.7297    6.5127   -0.6087 C.3     1  LIG1        0.0790
     42 H          -4.2576    4.7794    1.0538 H       1  LIG1        0.2095
     43 H           2.9945    1.1775    0.3899 H       1  LIG1        0.1754
     44 H          -7.7678   -4.4103   -0.8842 H       1  LIG1        0.1651
     45 H           3.7091   -1.8330   -3.3784 H       1  LIG1        0.0653
     46 H          -3.3118   -1.1931   -1.0269 H       1  LIG1        0.0646
     47 H           2.2323   -2.6304   -5.2111 H       1  LIG1        0.0622
     48 H           0.2186   -3.1653    0.4768 H       1  LIG1        0.0640
     49 H          -3.3436    1.7546   -0.3697 H       1  LIG1        0.0720
     50 H          -2.8842    2.4266   -1.9742 H       1  LIG1        0.0720
     51 H          -0.4228    0.6485   -4.3288 H       1  LIG1        0.0833
     52 H          -0.1303    2.4422    2.2977 H       1  LIG1        0.0655
     53 H          -1.1514   -5.2147    0.7335 H       1  LIG1        0.0830
     54 H           0.2797   -2.3148   -6.5957 H       1  LIG1        0.0278
     55 H          -0.3338   -0.6615   -6.7086 H       1  LIG1        0.0278
     56 H          -1.0986   -1.8266   -5.5940 H       1  LIG1        0.0278
     57 H          -2.9921    4.7567   -0.7772 H       1  LIG1        0.0591
     58 H          -4.5485    3.9263   -1.0810 H       1  LIG1        0.0591
     59 H           1.1580    7.1365    1.3326 H       1  LIG1        0.0655
     60 H          -0.8247    4.2542    3.7978 H       1  LIG1        0.0619
     61 H          -0.1837    6.5993    3.3108 H       1  LIG1        0.0619
     62 H           3.4116    6.4368   -1.4611 H       1  LIG1        0.0660
     63 H           3.3324    6.7284    0.2802 H       1  LIG1        0.0660
     64 H           2.0261    7.3252   -0.8152 H       1  LIG1        0.0660
@<TRIPOS>BOND
     1     1     4    2
     2     1     5    2
     3     1     8    1
     4     1    21    1
     5     2    18    1
     6     2    24    1
     7     3    19    1
     8     3    29    1
     9     6    32    1
    10     6    41    1
    11     7    36    1
    12     8    17    1
    13     9    17   ar
    14     9    20   ar
    15    10    19   ar
    16    10    20   ar
    17    11    21   ar
    18    11    31   ar
    19    12    30   ar
    20    12    34   ar
    21    13    15   ar
    22    13    40   ar
    23    14    16   ar
    24    14    40   ar
    25    15    16   ar
    26    17    18   ar
    27    18    19   ar
    28    20    22    1
    29    21    23   ar
    30    22    25   ar
    31    22    28   ar
    32    23    27   ar
    33    24    32   ar
    34    24    33   ar
    35    25    30   ar
    36    26    27   ar
    37    26    31   ar
    38    26    35    1
    39    28    34   ar
    40    29    36    1
    41    30    40    1
    42    32    37   ar
    43    33    38   ar
    44    37    39   ar
    45    38    39   ar
    46     7    42    1
    47     8    43    1
    48    15    44    1
    49    23    45    1
    50    25    46    1
    51    27    47    1
    52    28    48    1
    53    29    49    1
    54    29    50    1
    55    31    51    1
    56    33    52    1
    57    34    53    1
    58    35    54    1
    59    35    55    1
    60    35    56    1
    61    36    57    1
    62    36    58    1
    63    37    59    1
    64    38    60    1
    65    39    61    1
    66    41    62    1
    67    41    63    1
    68    41    64    1
@<TRIPOS>MOLECULE
6433095
 64 68 0 0 0
SMALL
GASTEIGER

@<TRIPOS>ATOM
      1 S           3.2136    0.4698   -2.1443 S.O2    1  LIG1        0.0908
      2 O           1.5117    2.6273    0.0290 O.3     1  LIG1       -0.4435
      3 O          -1.1582    2.6881    0.3757 O.3     1  LIG1       -0.4715
      4 O           2.3490    1.5272   -2.6312 O.2     1  LIG1       -0.1484
      5 O           3.4729   -0.7126   -2.9382 O.2     1  LIG1       -0.1484
      6 O           3.4598    4.5895   -0.4813 O.3     1  LIG1       -0.4914
      7 O          -4.7220    2.5616   -0.5846 O.3     1  LIG1       -0.3917
      8 N           2.7132   -0.0111   -0.5957 N.pl3   1  LIG1       -0.1950
      9 N           0.6246   -0.9171   -0.3652 N.ar    1  LIG1       -0.2073
     10 N          -1.3108    0.3585    0.1460 N.ar    1  LIG1       -0.1899
     11 N           5.3893    0.7092   -0.6415 N.ar    1  LIG1       -0.2351
     12 N          -3.1489   -4.3145   -0.2590 N.ar    1  LIG1       -0.2552
     13 N          -2.2520   -6.6288   -1.7009 N.ar    1  LIG1       -0.5621
     14 N          -0.1911   -5.7316   -1.9469 N.ar    1  LIG1       -0.1535
     15 N          -1.3807   -7.4253   -2.3285 N.ar    1  LIG1       -0.3597
     16 N          -0.1473   -6.9382   -2.4933 N.ar    1  LIG1       -0.0878
     17 C           1.3470    0.2141   -0.3024 C.ar    1  LIG1        0.1882
     18 C           0.8199    1.4534    0.0068 C.ar    1  LIG1        0.2307
     19 C          -0.5471    1.4637    0.1777 C.ar    1  LIG1        0.2641
     20 C          -0.6893   -0.8020   -0.1250 C.ar    1  LIG1        0.1659
     21 C           4.8027    1.2132   -1.7657 C.ar    1  LIG1        0.1969
     22 C          -1.5203   -2.0147   -0.1643 C.ar    1  LIG1        0.0227
     23 C           5.2853    2.2701   -2.5162 C.ar    1  LIG1       -0.0160
     24 C           2.5320    2.8063    0.9347 C.ar    1  LIG1        0.1702
     25 C          -1.0710   -3.2014   -0.7676 C.ar    1  LIG1       -0.0252
     26 C           7.1677    2.3174   -1.0017 C.ar    1  LIG1       -0.0322
     27 C           6.4990    2.8252   -2.1218 C.ar    1  LIG1       -0.0541
     28 C          -2.8079   -2.0267    0.3934 C.ar    1  LIG1       -0.0328
     29 C          -2.5791    2.6392    0.5345 C.3     1  LIG1        0.1143
     30 C          -1.9052   -4.3180   -0.8064 C.ar    1  LIG1        0.0708
     31 C           6.5753    1.2624   -0.3093 C.ar    1  LIG1        0.0327
     32 C           3.4846    3.7937    0.6357 C.ar    1  LIG1        0.1621
     33 C           2.6551    2.0746    2.1229 C.ar    1  LIG1       -0.0157
     34 C          -3.5688   -3.1792    0.3273 C.ar    1  LIG1        0.0289
     35 C           8.5014    2.8506   -0.5808 C.3     1  LIG1       -0.0383
     36 C          -3.3149    2.5141   -0.7995 C.3     1  LIG1        0.0783
     37 C           4.5945    3.9696    1.4655 C.ar    1  LIG1       -0.0163
     38 C           3.7574    2.2717    2.9589 C.ar    1  LIG1       -0.0581
     39 C           4.7317    3.2097    2.6246 C.ar    1  LIG1       -0.0581
     40 C          -1.4732   -5.5524   -1.4675 C.ar    1  LIG1        0.0207
     41 C           2.2177    5.2669   -0.6754 C.3     1  LIG1        0.0790
     42 H          -5.1434    2.4348   -1.4528 H       1  LIG1        0.2095
     43 H           3.3861    0.3299    0.0947 H       1  LIG1        0.1754
     44 H          -1.6395   -8.3482   -2.6653 H       1  LIG1        0.1651
     45 H           4.7379    2.6556   -3.3689 H       1  LIG1        0.0653
     46 H          -0.0824   -3.2423   -1.2209 H       1  LIG1        0.0646
     47 H           6.9174    3.6545   -2.6874 H       1  LIG1        0.0622
     48 H          -3.2196   -1.1459    0.8786 H       1  LIG1        0.0640
     49 H          -2.8742    3.5868    1.0015 H       1  LIG1        0.0720
     50 H          -2.8903    1.8677    1.2509 H       1  LIG1        0.0720
     51 H           7.0582    0.8218    0.5599 H       1  LIG1        0.0833
     52 H           1.9098    1.3422    2.4208 H       1  LIG1        0.0655
     53 H          -4.5670   -3.2178    0.7544 H       1  LIG1        0.0830
     54 H           8.6909    3.8370   -1.0167 H       1  LIG1        0.0278
     55 H           9.2959    2.1708   -0.9047 H       1  LIG1        0.0278
     56 H           8.5464    2.9596    0.5079 H       1  LIG1        0.0278
     57 H          -3.0304    3.3323   -1.4695 H       1  LIG1        0.0591
     58 H          -3.0748    1.5758   -1.3078 H       1  LIG1        0.0591
     59 H           5.3480    4.7097    1.2069 H       1  LIG1        0.0655
     60 H           3.8567    1.6897    3.8722 H       1  LIG1        0.0619
     61 H           5.5932    3.3569    3.2714 H       1  LIG1        0.0619
     62 H           2.4355    6.2366   -1.1339 H       1  LIG1        0.0660
     63 H           1.6839    5.4569    0.2634 H       1  LIG1        0.0660
     64 H           1.5878    4.7054   -1.3715 H       1  LIG1        0.0660
@<TRIPOS>BOND
     1     1     4    2
     2     1     5    2
     3     1     8    1
     4     1    21    1
     5     2    18    1
     6     2    24    1
     7     3    19    1
     8     3    29    1
     9     6    32    1
    10     6    41    1
    11     7    36    1
    12     8    17    1
    13     9    17   ar
    14     9    20   ar
    15    10    19   ar
    16    10    20   ar
    17    11    21   ar
    18    11    31   ar
    19    12    30   ar
    20    12    34   ar
    21    13    15   ar
    22    13    40   ar
    23    14    16   ar
    24    14    40   ar
    25    15    16   ar
    26    17    18   ar
    27    18    19   ar
    28    20    22    1
    29    21    23   ar
    30    22    25   ar
    31    22    28   ar
    32    23    27   ar
    33    24    32   ar
    34    24    33   ar
    35    25    30   ar
    36    26    27   ar
    37    26    31   ar
    38    26    35    1
    39    28    34   ar
    40    29    36    1
    41    30    40    1
    42    32    37   ar
    43    33    38   ar
    44    37    39   ar
    45    38    39   ar
    46     7    42    1
    47     8    43    1
    48    15    44    1
    49    23    45    1
    50    25    46    1
    51    27    47    1
    52    28    48    1
    53    29    49    1
    54    29    50    1
    55    31    51    1
    56    33    52    1
    57    34    53    1
    58    35    54    1
    59    35    55    1
    60    35    56    1
    61    36    57    1
    62    36    58    1
    63    37    59    1
    64    38    60    1
    65    39    61    1
    66    41    62    1
    67    41    63    1
    68    41    64    1
@<TRIPOS>MOLECULE
6433095
 64 68 0 0 0
SMALL
GASTEIGER

@<TRIPOS>ATOM
      1 S           3.5045    0.0342    1.0254 S.O2    1  LIG1        0.0908
      2 O           1.2759    2.8674    0.0606 O.3     1  LIG1       -0.4435
      3 O          -1.5415    2.8097   -0.3513 O.3     1  LIG1       -0.4715
      4 O           4.8860    0.0556    0.5777 O.2     1  LIG1       -0.1484
      5 O           2.9637   -1.1734    1.6149 O.2     1  LIG1       -0.1484
      6 O           2.1451    5.6145   -0.4423 O.3     1  LIG1       -0.4914
      7 O          -4.7462    2.4659   -2.1171 O.3     1  LIG1       -0.3917
      8 N           2.5928    0.4235   -0.3494 N.pl3   1  LIG1       -0.1950
      9 N           0.5729   -0.6835   -0.3203 N.ar    1  LIG1       -0.2073
     10 N          -1.4981    0.4743   -0.2796 N.ar    1  LIG1       -0.1899
     11 N           2.3226    1.2262    3.0884 N.ar    1  LIG1       -0.2351
     12 N          -2.9846   -4.3163   -0.1157 N.ar    1  LIG1       -0.2552
     13 N          -1.9022   -6.7169   -1.2432 N.ar    1  LIG1       -0.5621
     14 N          -0.1746   -5.5682   -2.1428 N.ar    1  LIG1       -0.1535
     15 N          -1.0926   -7.4583   -2.0056 N.ar    1  LIG1       -0.3597
     16 N          -0.0575   -6.8202   -2.5619 N.ar    1  LIG1       -0.0878
     17 C           1.1833    0.5046   -0.1797 C.ar    1  LIG1        0.1882
     18 C           0.5389    1.7211   -0.0469 C.ar    1  LIG1        0.2307
     19 C          -0.8297    1.6379   -0.2021 C.ar    1  LIG1        0.2641
     20 C          -0.7668   -0.6527   -0.2840 C.ar    1  LIG1        0.1659
     21 C           3.2924    1.4043    2.1530 C.ar    1  LIG1        0.1969
     22 C          -1.5092   -1.9201   -0.2340 C.ar    1  LIG1        0.0227
     23 C           4.1439    2.4972    2.0919 C.ar    1  LIG1       -0.0160
     24 C           0.8458    3.9161    0.8493 C.ar    1  LIG1        0.1702
     25 C          -1.0063   -3.1072   -0.7868 C.ar    1  LIG1       -0.0252
     26 C           2.9884    3.3603    4.0265 C.ar    1  LIG1       -0.0322
     27 C           3.9750    3.4968    3.0454 C.ar    1  LIG1       -0.0541
     28 C          -2.7684   -1.9784    0.3833 C.ar    1  LIG1       -0.0328
     29 C          -2.9543    2.6720   -0.5065 C.3     1  LIG1        0.1143
     30 C          -1.7686   -4.2740   -0.7212 C.ar    1  LIG1        0.0708
     31 C           2.2148    2.2017    4.0152 C.ar    1  LIG1        0.0327
     32 C           1.3049    5.2116    0.5619 C.ar    1  LIG1        0.1621
     33 C           0.0385    3.7188    1.9855 C.ar    1  LIG1       -0.0157
     34 C          -3.4525   -3.1781    0.4249 C.ar    1  LIG1        0.0289
     35 C           2.7857    4.4022    5.0808 C.3     1  LIG1       -0.0383
     36 C          -3.3313    2.4678   -1.9707 C.3     1  LIG1        0.0783
     37 C           0.9179    6.2756    1.3921 C.ar    1  LIG1       -0.0163
     38 C          -0.3599    4.7912    2.7856 C.ar    1  LIG1       -0.0581
     39 C           0.0795    6.0732    2.4874 C.ar    1  LIG1       -0.0581
     40 C          -1.2986   -5.5148   -1.3429 C.ar    1  LIG1        0.0207
     41 C           2.3328    4.7553   -1.5560 C.3     1  LIG1        0.0790
     42 H          -4.9325    2.3420   -3.0641 H       1  LIG1        0.2095
     43 H           2.8018   -0.3052   -1.0318 H       1  LIG1        0.1754
     44 H          -1.2544   -8.4499   -2.1575 H       1  LIG1        0.1651
     45 H           4.9142    2.5753    1.3321 H       1  LIG1        0.0653
     46 H          -0.0341   -3.1144   -1.2734 H       1  LIG1        0.0646
     47 H           4.6129    4.3773    3.0206 H       1  LIG1        0.0622
     48 H          -3.2114   -1.0973    0.8398 H       1  LIG1        0.0640
     49 H          -3.4022    3.6110   -0.1593 H       1  LIG1        0.0720
     50 H          -3.3858    1.9006    0.1442 H       1  LIG1        0.0720
     51 H           1.4489    2.0313    4.7679 H       1  LIG1        0.0833
     52 H          -0.2874    2.7240    2.2779 H       1  LIG1        0.0655
     53 H          -4.4236   -3.2550    0.9058 H       1  LIG1        0.0830
     54 H           3.1954    5.3677    4.7664 H       1  LIG1        0.0278
     55 H           3.2773    4.0986    6.0098 H       1  LIG1        0.0278
     56 H           1.7182    4.5507    5.2752 H       1  LIG1        0.0278
     57 H          -2.9124    3.2727   -2.5847 H       1  LIG1        0.0591
     58 H          -2.9363    1.5219   -2.3539 H       1  LIG1        0.0591
     59 H           1.2736    7.2803    1.1729 H       1  LIG1        0.0655
     60 H          -1.0014    4.6187    3.6459 H       1  LIG1        0.0619
     61 H          -0.2190    6.9138    3.1079 H       1  LIG1        0.0619
     62 H           2.8303    5.3355   -2.3394 H       1  LIG1        0.0660
     63 H           1.3792    4.4060   -1.9649 H       1  LIG1        0.0660
     64 H           2.9969    3.9245   -1.2993 H       1  LIG1        0.0660
@<TRIPOS>BOND
     1     1     4    2
     2     1     5    2
     3     1     8    1
     4     1    21    1
     5     2    18    1
     6     2    24    1
     7     3    19    1
     8     3    29    1
     9     6    32    1
    10     6    41    1
    11     7    36    1
    12     8    17    1
    13     9    17   ar
    14     9    20   ar
    15    10    19   ar
    16    10    20   ar
    17    11    21   ar
    18    11    31   ar
    19    12    30   ar
    20    12    34   ar
    21    13    15   ar
    22    13    40   ar
    23    14    16   ar
    24    14    40   ar
    25    15    16   ar
    26    17    18   ar
    27    18    19   ar
    28    20    22    1
    29    21    23   ar
    30    22    25   ar
    31    22    28   ar
    32    23    27   ar
    33    24    32   ar
    34    24    33   ar
    35    25    30   ar
    36    26    27   ar
    37    26    31   ar
    38    26    35    1
    39    28    34   ar
    40    29    36    1
    41    30    40    1
    42    32    37   ar
    43    33    38   ar
    44    37    39   ar
    45    38    39   ar
    46     7    42    1
    47     8    43    1
    48    15    44    1
    49    23    45    1
    50    25    46    1
    51    27    47    1
    52    28    48    1
    53    29    49    1
    54    29    50    1
    55    31    51    1
    56    33    52    1
    57    34    53    1
    58    35    54    1
    59    35    55    1
    60    35    56    1
    61    36    57    1
    62    36    58    1
    63    37    59    1
    64    38    60    1
    65    39    61    1
    66    41    62    1
    67    41    63    1
    68    41    64    1
@<TRIPOS>MOLECULE
6433095
 64 68 0 0 0
SMALL
GASTEIGER

@<TRIPOS>ATOM
      1 S           3.4972   -0.1124    0.9711 S.O2    1  LIG1        0.0908
      2 O           1.2499    2.8734   -0.0942 O.3     1  LIG1       -0.4435
      3 O          -1.5734    2.7558   -0.4185 O.3     1  LIG1       -0.4715
      4 O           4.8456    0.4057    0.7966 O.2     1  LIG1       -0.1484
      5 O           3.2815   -1.5375    1.0861 O.2     1  LIG1       -0.1484
      6 O           2.3059    5.2496   -0.4283 O.3     1  LIG1       -0.4914
      7 O          -4.0122    3.8569    0.8993 O.3     1  LIG1       -0.3917
      8 N           2.6341    0.5209   -0.3267 N.pl3   1  LIG1       -0.1950
      9 N           0.6345   -0.6967   -0.3210 N.ar    1  LIG1       -0.2073
     10 N          -1.4643    0.4208   -0.3856 N.ar    1  LIG1       -0.1899
     11 N           1.6240    0.2102    2.8468 N.ar    1  LIG1       -0.2351
     12 N          -2.9180   -4.3461   -0.0481 N.ar    1  LIG1       -0.2552
     13 N          -1.8934   -6.7572   -1.1928 N.ar    1  LIG1       -0.5621
     14 N          -0.2111   -5.6233   -2.1918 N.ar    1  LIG1       -0.1535
     15 N          -1.1333   -7.5058   -1.9974 N.ar    1  LIG1       -0.3597
     16 N          -0.1275   -6.8773   -2.6136 N.ar    1  LIG1       -0.0878
     17 C           1.2167    0.5102   -0.2552 C.ar    1  LIG1        0.1882
     18 C           0.5359    1.7128   -0.1904 C.ar    1  LIG1        0.2307
     19 C          -0.8266    1.6011   -0.3431 C.ar    1  LIG1        0.2641
     20 C          -0.7055   -0.6891   -0.3281 C.ar    1  LIG1        0.1659
     21 C           2.8179    0.7015    2.4224 C.ar    1  LIG1        0.1969
     22 C          -1.4343   -1.9607   -0.2295 C.ar    1  LIG1        0.0227
     23 C           3.5112    1.7324    3.0388 C.ar    1  LIG1       -0.0160
     24 C           0.8947    3.8374    0.8329 C.ar    1  LIG1        0.1702
     25 C          -0.9510   -3.1527   -0.7868 C.ar    1  LIG1       -0.0252
     26 C           1.7293    1.8064    4.6653 C.ar    1  LIG1       -0.0322
     27 C           2.9439    2.2978    4.1771 C.ar    1  LIG1       -0.0541
     28 C          -2.6741   -2.0086    0.4284 C.ar    1  LIG1       -0.0328
     29 C          -2.9291    2.5723   -0.8394 C.3     1  LIG1        0.1143
     30 C          -1.7197   -4.3134   -0.6916 C.ar    1  LIG1        0.0708
     31 C           1.1232    0.7617    3.9713 C.ar    1  LIG1        0.0327
     32 C           1.4562    5.1123    0.6415 C.ar    1  LIG1        0.1621
     33 C           0.0726    3.6091    1.9437 C.ar    1  LIG1       -0.0157
     34 C          -3.3630   -3.2030    0.4997 C.ar    1  LIG1        0.0289
     35 C           1.0909    2.3692    5.8956 C.3     1  LIG1       -0.0383
     36 C          -3.7049    3.8413   -0.4961 C.3     1  LIG1        0.0783
     37 C           1.1131    6.1572    1.5074 C.ar    1  LIG1       -0.0163
     38 C          -0.2560    4.6540    2.8081 C.ar    1  LIG1       -0.0581
     39 C           0.2536    5.9284    2.5836 C.ar    1  LIG1       -0.0581
     40 C          -1.2871   -5.5595   -1.3297 C.ar    1  LIG1        0.0207
     41 C           3.2373    6.3231   -0.3532 C.3     1  LIG1        0.0790
     42 H          -4.4457    4.7071    1.0836 H       1  LIG1        0.2095
     43 H           3.0390    1.4079   -0.6215 H       1  LIG1        0.1754
     44 H          -1.3108   -8.4963   -2.1375 H       1  LIG1        0.1651
     45 H           4.4614    2.0894    2.6561 H       1  LIG1        0.0653
     46 H           0.0058   -3.1640   -1.3041 H       1  LIG1        0.0646
     47 H           3.4554    3.1138    4.6826 H       1  LIG1        0.0622
     48 H          -3.0983   -1.1195    0.8876 H       1  LIG1        0.0640
     49 H          -3.4074    1.7257   -0.3341 H       1  LIG1        0.0720
     50 H          -2.9313    2.4187   -1.9243 H       1  LIG1        0.0720
     51 H           0.1834    0.3316    4.3096 H       1  LIG1        0.0833
     52 H          -0.3450    2.6290    2.1519 H       1  LIG1        0.0655
     53 H          -4.3202   -3.2704    1.0085 H       1  LIG1        0.0830
     54 H           1.6541    3.2238    6.2845 H       1  LIG1        0.0278
     55 H           1.0466    1.6072    6.6801 H       1  LIG1        0.0278
     56 H           0.0761    2.7137    5.6714 H       1  LIG1        0.0278
     57 H          -3.1190    4.7373   -0.7244 H       1  LIG1        0.0591
     58 H          -4.6506    3.8677   -1.0449 H       1  LIG1        0.0591
     59 H           1.4861    7.1650    1.3577 H       1  LIG1        0.0655
     60 H          -0.9231    4.4714    3.6470 H       1  LIG1        0.0619
     61 H          -0.0192    6.7463    3.2458 H       1  LIG1        0.0619
     62 H           3.9896    6.1673   -1.1321 H       1  LIG1        0.0660
     63 H           3.7568    6.3393    0.6115 H       1  LIG1        0.0660
     64 H           2.7440    7.2796   -0.5512 H       1  LIG1        0.0660
@<TRIPOS>BOND
     1     1     4    2
     2     1     5    2
     3     1     8    1
     4     1    21    1
     5     2    18    1
     6     2    24    1
     7     3    19    1
     8     3    29    1
     9     6    32    1
    10     6    41    1
    11     7    36    1
    12     8    17    1
    13     9    17   ar
    14     9    20   ar
    15    10    19   ar
    16    10    20   ar
    17    11    21   ar
    18    11    31   ar
    19    12    30   ar
    20    12    34   ar
    21    13    15   ar
    22    13    40   ar
    23    14    16   ar
    24    14    40   ar
    25    15    16   ar
    26    17    18   ar
    27    18    19   ar
    28    20    22    1
    29    21    23   ar
    30    22    25   ar
    31    22    28   ar
    32    23    27   ar
    33    24    32   ar
    34    24    33   ar
    35    25    30   ar
    36    26    27   ar
    37    26    31   ar
    38    26    35    1
    39    28    34   ar
    40    29    36    1
    41    30    40    1
    42    32    37   ar
    43    33    38   ar
    44    37    39   ar
    45    38    39   ar
    46     7    42    1
    47     8    43    1
    48    15    44    1
    49    23    45    1
    50    25    46    1
    51    27    47    1
    52    28    48    1
    53    29    49    1
    54    29    50    1
    55    31    51    1
    56    33    52    1
    57    34    53    1
    58    35    54    1
    59    35    55    1
    60    35    56    1
    61    36    57    1
    62    36    58    1
    63    37    59    1
    64    38    60    1
    65    39    61    1
    66    41    62    1
    67    41    63    1
    68    41    64    1
@<TRIPOS>MOLECULE
6433095
 64 68 0 0 0
SMALL
GASTEIGER

@<TRIPOS>ATOM
      1 S           3.6352    0.2091    0.9786 S.O2    1  LIG1        0.0908
      2 O           1.3819    2.7457   -0.0047 O.3     1  LIG1       -0.4435
      3 O          -1.4606    2.7118   -0.2433 O.3     1  LIG1       -0.4715
      4 O           4.3045    1.4990    1.0175 O.2     1  LIG1       -0.1484
      5 O           4.4303   -0.9982    0.8991 O.2     1  LIG1       -0.1484
      6 O           2.1057    5.2366   -0.5225 O.3     1  LIG1       -0.4914
      7 O          -5.0732    2.3727   -0.8312 O.3     1  LIG1       -0.3917
      8 N           2.6788    0.3069   -0.4136 N.pl3   1  LIG1       -0.1950
      9 N           0.6425   -0.7893   -0.3092 N.ar    1  LIG1       -0.2073
     10 N          -1.4204    0.3812   -0.2250 N.ar    1  LIG1       -0.1899
     11 N           1.7637   -0.9424    2.4883 N.ar    1  LIG1       -0.2351
     12 N          -2.8528   -4.4482    0.1312 N.ar    1  LIG1       -0.2552
     13 N          -5.7353   -4.3733    0.3668 N.ar    1  LIG1       -0.5621
     14 N          -5.6931   -2.1159    0.4958 N.ar    1  LIG1       -0.1535
     15 N          -6.9356   -3.8135    0.5547 N.ar    1  LIG1       -0.3597
     16 N          -6.9586   -2.4790    0.6427 N.ar    1  LIG1       -0.0878
     17 C           1.2695    0.3952   -0.2517 C.ar    1  LIG1        0.1882
     18 C           0.6340    1.6108   -0.1064 C.ar    1  LIG1        0.2307
     19 C          -0.7395    1.5395   -0.2067 C.ar    1  LIG1        0.2641
     20 C          -0.6957   -0.7512   -0.2407 C.ar    1  LIG1        0.1659
     21 C           2.6112    0.1164    2.4399 C.ar    1  LIG1        0.1969
     22 C          -1.4307   -2.0240   -0.1372 C.ar    1  LIG1        0.0227
     23 C           2.7654    1.0449    3.4605 C.ar    1  LIG1       -0.0160
     24 C           1.0315    3.7037    0.9283 C.ar    1  LIG1        0.1702
     25 C          -2.8288   -2.0458    0.0078 C.ar    1  LIG1       -0.0252
     26 C           1.1292   -0.2159    4.7083 C.ar    1  LIG1       -0.0322
     27 C           2.0036    0.8709    4.6127 C.ar    1  LIG1       -0.0541
     28 C          -0.7723   -3.2597   -0.1470 C.ar    1  LIG1       -0.0328
     29 C          -2.6773    2.6236   -0.9880 C.3     1  LIG1        0.1143
     30 C          -3.5021   -3.2571    0.1431 C.ar    1  LIG1        0.0708
     31 C           1.0493   -1.0849    3.6232 C.ar    1  LIG1        0.0327
     32 C           1.4227    5.0213    0.6481 C.ar    1  LIG1        0.1621
     33 C           0.3737    3.4187    2.1329 C.ar    1  LIG1       -0.0157
     34 C          -1.5125   -4.4226   -0.0156 C.ar    1  LIG1        0.0289
     35 C           0.3225   -0.4699    5.9425 C.3     1  LIG1       -0.0383
     36 C          -3.8704    2.3778   -0.0716 C.3     1  LIG1        0.0783
     37 C           1.0641    6.0530    1.5213 C.ar    1  LIG1       -0.0163
     38 C           0.0345    4.4512    3.0085 C.ar    1  LIG1       -0.0581
     39 C           0.3669    5.7670    2.6963 C.ar    1  LIG1       -0.0581
     40 C          -4.9566   -3.2739    0.3271 C.ar    1  LIG1        0.0207
     41 C           3.1483    6.2031   -0.4215 C.3     1  LIG1        0.0790
     42 H          -5.7892    2.1055   -0.2284 H       1  LIG1        0.2095
     43 H           3.0126    1.1473   -0.8899 H       1  LIG1        0.1754
     44 H          -7.7841   -4.3683    0.6280 H       1  LIG1        0.1651
     45 H           3.4677    1.8684    3.3794 H       1  LIG1        0.0653
     46 H          -3.3894   -1.1145    0.0226 H       1  LIG1        0.0646
     47 H           2.1107    1.5724    5.4368 H       1  LIG1        0.0622
     48 H           0.3086   -3.3204   -0.2478 H       1  LIG1        0.0640
     49 H          -2.6302    1.8881   -1.8028 H       1  LIG1        0.0720
     50 H          -2.8133    3.5896   -1.4899 H       1  LIG1        0.0720
     51 H           0.3954   -1.9539    3.6435 H       1  LIG1        0.0833
     52 H           0.0975    2.4040    2.4036 H       1  LIG1        0.0655
     53 H          -1.0283   -5.3958   -0.0199 H       1  LIG1        0.0830
     54 H           0.4627    0.3240    6.6831 H       1  LIG1        0.0278
     55 H           0.6259   -1.4164    6.4018 H       1  LIG1        0.0278
     56 H          -0.7431   -0.5145    5.6964 H       1  LIG1        0.0278
     57 H          -3.7787    1.4211    0.4506 H       1  LIG1        0.0591
     58 H          -3.9339    3.1632    0.6891 H       1  LIG1        0.0591
     59 H           1.2993    7.0879    1.2932 H       1  LIG1        0.0655
     60 H          -0.5028    4.2295    3.9276 H       1  LIG1        0.0619
     61 H           0.0809    6.5740    3.3672 H       1  LIG1        0.0619
     62 H           3.8302    6.0480   -1.2629 H       1  LIG1        0.0660
     63 H           3.7265    6.0862    0.5024 H       1  LIG1        0.0660
     64 H           2.7422    7.2161   -0.5011 H       1  LIG1        0.0660
@<TRIPOS>BOND
     1     1     4    2
     2     1     5    2
     3     1     8    1
     4     1    21    1
     5     2    18    1
     6     2    24    1
     7     3    19    1
     8     3    29    1
     9     6    32    1
    10     6    41    1
    11     7    36    1
    12     8    17    1
    13     9    17   ar
    14     9    20   ar
    15    10    19   ar
    16    10    20   ar
    17    11    21   ar
    18    11    31   ar
    19    12    30   ar
    20    12    34   ar
    21    13    15   ar
    22    13    40   ar
    23    14    16   ar
    24    14    40   ar
    25    15    16   ar
    26    17    18   ar
    27    18    19   ar
    28    20    22    1
    29    21    23   ar
    30    22    25   ar
    31    22    28   ar
    32    23    27   ar
    33    24    32   ar
    34    24    33   ar
    35    25    30   ar
    36    26    27   ar
    37    26    31   ar
    38    26    35    1
    39    28    34   ar
    40    29    36    1
    41    30    40    1
    42    32    37   ar
    43    33    38   ar
    44    37    39   ar
    45    38    39   ar
    46     7    42    1
    47     8    43    1
    48    15    44    1
    49    23    45    1
    50    25    46    1
    51    27    47    1
    52    28    48    1
    53    29    49    1
    54    29    50    1
    55    31    51    1
    56    33    52    1
    57    34    53    1
    58    35    54    1
    59    35    55    1
    60    35    56    1
    61    36    57    1
    62    36    58    1
    63    37    59    1
    64    38    60    1
    65    39    61    1
    66    41    62    1
    67    41    63    1
    68    41    64    1
