@<TRIPOS>MOLECULE
177236
 51 53 0 0 0
SMALL
GASTEIGER

@<TRIPOS>ATOM
      1 O          -2.3936    0.7989   -1.7565 O.3     1  LIG1       -0.3632
      2 O           0.5743    0.0230    0.4698 O.3     1  LIG1       -0.4494
      3 O           0.4075    2.6892    0.6520 O.co2   1  LIG1       -0.5459
      4 O          -0.1469    2.9046   -1.5386 O.co2   1  LIG1       -0.5459
      5 O           4.3728   -0.6142   -2.1907 O.3     1  LIG1       -0.4794
      6 O           4.7967    0.0974    2.4156 O.3     1  LIG1       -0.4794
      7 N           2.4413   -0.2314   -0.9008 N.ar    1  LIG1       -0.1594
      8 N           2.6508    0.0855    1.4464 N.ar    1  LIG1       -0.1594
      9 C          -1.6216    0.2372   -0.6538 C.3     1  LIG1        0.1609
     10 C          -0.1285    0.7070   -0.6113 C.3     1  LIG1        0.1791
     11 C          -2.3462    0.6935    0.6468 C.ar    1  LIG1       -0.0075
     12 C          -1.7993   -1.3101   -0.8568 C.ar    1  LIG1       -0.0075
     13 C          -2.2152   -0.0228    1.8521 C.ar    1  LIG1       -0.0554
     14 C          -3.0886   -1.8795   -0.7721 C.ar    1  LIG1       -0.0554
     15 C          -3.1322    1.8612    0.6641 C.ar    1  LIG1       -0.0554
     16 C          -0.7398   -2.1715   -1.1951 C.ar    1  LIG1       -0.0554
     17 C           0.0272    2.2443   -0.4699 C.2     1  LIG1        0.0856
     18 C          -1.8460    0.6834   -3.0601 C.3     1  LIG1        0.0382
     19 C          -2.8763    0.3881    3.0123 C.ar    1  LIG1       -0.0614
     20 C          -3.2988   -3.2460   -0.9733 C.ar    1  LIG1       -0.0614
     21 C          -3.7898    2.2744    1.8252 C.ar    1  LIG1       -0.0614
     22 C          -0.9498   -3.5390   -1.4002 C.ar    1  LIG1       -0.0614
     23 C          -3.6677    1.5334    2.9975 C.ar    1  LIG1       -0.0617
     24 C          -2.2270   -4.0769   -1.2843 C.ar    1  LIG1       -0.0617
     25 C           1.9407    0.0416    0.3140 C.ar    1  LIG1        0.3249
     26 C           3.7738   -0.3445   -0.9729 C.ar    1  LIG1        0.2240
     27 C           3.9795   -0.0061    1.3029 C.ar    1  LIG1        0.2240
     28 C           4.6087   -0.2429    0.1082 C.ar    1  LIG1        0.0617
     29 C           3.4466   -0.5859   -3.2743 C.3     1  LIG1        0.0804
     30 C           4.1162    0.6847    3.5234 C.3     1  LIG1        0.0804
     31 H           0.3300    0.4451   -1.5725 H       1  LIG1        0.0834
     32 H          -1.5797   -0.9051    1.8944 H       1  LIG1        0.0621
     33 H          -3.9420   -1.2413   -0.5473 H       1  LIG1        0.0621
     34 H          -3.2117    2.4746   -0.2325 H       1  LIG1        0.0621
     35 H           0.2727   -1.7985   -1.3155 H       1  LIG1        0.0621
     36 H          -2.5795    1.0901   -3.7629 H       1  LIG1        0.0524
     37 H          -1.6688   -0.3590   -3.3362 H       1  LIG1        0.0524
     38 H          -0.9285    1.2596   -3.1806 H       1  LIG1        0.0524
     39 H          -2.7525   -0.1779    3.9306 H       1  LIG1        0.0618
     40 H          -4.3012   -3.6546   -0.8890 H       1  LIG1        0.0618
     41 H          -4.3744    3.1891    1.8117 H       1  LIG1        0.0618
     42 H          -0.1079   -4.1766   -1.6539 H       1  LIG1        0.0618
     43 H          -4.1660    1.8646    3.9032 H       1  LIG1        0.0618
     44 H          -2.3866   -5.1391   -1.4427 H       1  LIG1        0.0618
     45 H           5.6797   -0.3374    0.0259 H       1  LIG1        0.0724
     46 H           4.0073   -0.7708   -4.1955 H       1  LIG1        0.0660
     47 H           2.9691    0.3960   -3.3658 H       1  LIG1        0.0660
     48 H           2.6987   -1.3808   -3.1772 H       1  LIG1        0.0660
     49 H           4.8501    0.8302    4.3219 H       1  LIG1        0.0660
     50 H           3.3354    0.0194    3.9072 H       1  LIG1        0.0660
     51 H           3.7074    1.6684    3.2656 H       1  LIG1        0.0660
@<TRIPOS>BOND
     1     1     9    1
     2     1    18    1
     3     2    10    1
     4     2    25    1
     5     3    17   ar
     6     4    17   ar
     7     5    26    1
     8     5    29    1
     9     6    27    1
    10     6    30    1
    11     7    25   ar
    12     7    26   ar
    13     8    25   ar
    14     8    27   ar
    15     9    10    1
    16     9    11    1
    17     9    12    1
    18    10    17    1
    19    11    13   ar
    20    11    15   ar
    21    12    14   ar
    22    12    16   ar
    23    13    19   ar
    24    14    20   ar
    25    15    21   ar
    26    16    22   ar
    27    19    23   ar
    28    20    24   ar
    29    21    23   ar
    30    22    24   ar
    31    26    28   ar
    32    27    28   ar
    33    10    31    1
    34    13    32    1
    35    14    33    1
    36    15    34    1
    37    16    35    1
    38    18    36    1
    39    18    37    1
    40    18    38    1
    41    19    39    1
    42    20    40    1
    43    21    41    1
    44    22    42    1
    45    23    43    1
    46    24    44    1
    47    28    45    1
    48    29    46    1
    49    29    47    1
    50    29    48    1
    51    30    49    1
    52    30    50    1
    53    30    51    1
@<TRIPOS>MOLECULE
177236
 51 53 0 0 0
SMALL
GASTEIGER

@<TRIPOS>ATOM
      1 O          -2.1545    0.8610   -1.8362 O.3     1  LIG1       -0.3632
      2 O           0.6499    0.0395    0.5834 O.3     1  LIG1       -0.4494
      3 O          -0.0073    2.7547    0.5939 O.co2   1  LIG1       -0.5459
      4 O           0.6834    2.6956   -1.5704 O.co2   1  LIG1       -0.5459
      5 O           4.8041    0.0389    2.6693 O.3     1  LIG1       -0.4794
      6 O           4.4014   -1.0245   -1.9035 O.3     1  LIG1       -0.4794
      7 N           2.6971    0.1156    1.6119 N.ar    1  LIG1       -0.1594
      8 N           2.5478   -0.4178   -0.7012 N.ar    1  LIG1       -0.1594
      9 C          -1.5114    0.2398   -0.6750 C.3     1  LIG1        0.1609
     10 C           0.0016    0.6455   -0.5697 C.3     1  LIG1        0.1791
     11 C          -2.3391    0.6685    0.5732 C.ar    1  LIG1       -0.0075
     12 C          -1.7638   -1.2972   -0.8944 C.ar    1  LIG1       -0.0075
     13 C          -2.1310    0.0591    1.8259 C.ar    1  LIG1       -0.0554
     14 C          -3.0612   -1.7366   -1.2450 C.ar    1  LIG1       -0.0554
     15 C          -3.3454    1.6498    0.4905 C.ar    1  LIG1       -0.0554
     16 C          -0.7715   -2.2817   -0.7618 C.ar    1  LIG1       -0.0554
     17 C           0.2115    2.1796   -0.5083 C.2     1  LIG1        0.0856
     18 C          -1.5019    0.7173   -3.0896 C.3     1  LIG1        0.0382
     19 C          -2.8981    0.4092    2.9412 C.ar    1  LIG1       -0.0614
     20 C          -3.3467   -3.0880   -1.4564 C.ar    1  LIG1       -0.0614
     21 C          -4.1185    1.9944    1.6036 C.ar    1  LIG1       -0.0614
     22 C          -1.0598   -3.6371   -0.9581 C.ar    1  LIG1       -0.0614
     23 C          -3.8956    1.3729    2.8287 C.ar    1  LIG1       -0.0617
     24 C          -2.3444   -4.0400   -1.3081 C.ar    1  LIG1       -0.0617
     25 C           2.0213   -0.0040    0.4620 C.ar    1  LIG1        0.3249
     26 C           4.0200   -0.0797    1.5347 C.ar    1  LIG1        0.2240
     27 C           3.8746   -0.5835   -0.7141 C.ar    1  LIG1        0.2240
     28 C           4.6780   -0.4395    0.3877 C.ar    1  LIG1        0.0617
     29 C           4.0566    0.4570    3.8084 C.3     1  LIG1        0.0804
     30 C           5.2294   -0.0190   -2.4814 C.3     1  LIG1        0.0804
     31 H           0.4853    0.2875   -1.4876 H       1  LIG1        0.0834
     32 H          -1.3544   -0.6925    1.9439 H       1  LIG1        0.0621
     33 H          -3.8591   -1.0041   -1.3608 H       1  LIG1        0.0621
     34 H          -3.5245    2.1692   -0.4481 H       1  LIG1        0.0621
     35 H           0.2499   -2.0265   -0.5033 H       1  LIG1        0.0621
     36 H          -2.2242    0.9775   -3.8691 H       1  LIG1        0.0524
     37 H          -1.1664   -0.3069   -3.2721 H       1  LIG1        0.0524
     38 H          -0.6649    1.4087   -3.1839 H       1  LIG1        0.0524
     39 H          -2.7006   -0.0644    3.8977 H       1  LIG1        0.0618
     40 H          -4.3522   -3.3890   -1.7339 H       1  LIG1        0.0618
     41 H          -4.8794    2.7629    1.5099 H       1  LIG1        0.0618
     42 H          -0.2696   -4.3731   -0.8364 H       1  LIG1        0.0618
     43 H          -4.4829    1.6539    3.6967 H       1  LIG1        0.0618
     44 H          -2.5614   -5.0919   -1.4646 H       1  LIG1        0.0618
     45 H           5.7402   -0.6190    0.3668 H       1  LIG1        0.0724
     46 H           4.7543    0.5419    4.6471 H       1  LIG1        0.0660
     47 H           3.3011   -0.2881    4.0811 H       1  LIG1        0.0660
     48 H           3.6042    1.4420    3.6499 H       1  LIG1        0.0660
     49 H           5.3170   -0.2294   -3.5518 H       1  LIG1        0.0660
     50 H           6.2343   -0.0685   -2.0485 H       1  LIG1        0.0660
     51 H           4.8143    0.9890   -2.3659 H       1  LIG1        0.0660
@<TRIPOS>BOND
     1     1     9    1
     2     1    18    1
     3     2    10    1
     4     2    25    1
     5     3    17   ar
     6     4    17   ar
     7     5    26    1
     8     5    29    1
     9     6    27    1
    10     6    30    1
    11     7    25   ar
    12     7    26   ar
    13     8    25   ar
    14     8    27   ar
    15     9    10    1
    16     9    11    1
    17     9    12    1
    18    10    17    1
    19    11    13   ar
    20    11    15   ar
    21    12    14   ar
    22    12    16   ar
    23    13    19   ar
    24    14    20   ar
    25    15    21   ar
    26    16    22   ar
    27    19    23   ar
    28    20    24   ar
    29    21    23   ar
    30    22    24   ar
    31    26    28   ar
    32    27    28   ar
    33    10    31    1
    34    13    32    1
    35    14    33    1
    36    15    34    1
    37    16    35    1
    38    18    36    1
    39    18    37    1
    40    18    38    1
    41    19    39    1
    42    20    40    1
    43    21    41    1
    44    22    42    1
    45    23    43    1
    46    24    44    1
    47    28    45    1
    48    29    46    1
    49    29    47    1
    50    29    48    1
    51    30    49    1
    52    30    50    1
    53    30    51    1
@<TRIPOS>MOLECULE
177236
 51 53 0 0 0
SMALL
GASTEIGER

@<TRIPOS>ATOM
      1 O          -2.2645    0.7903   -1.8319 O.3     1  LIG1       -0.3632
      2 O           0.6226    0.0516    0.5214 O.3     1  LIG1       -0.4494
      3 O           0.1018    2.7308    0.6113 O.co2   1  LIG1       -0.5459
      4 O           0.2517    2.7755   -1.6564 O.co2   1  LIG1       -0.5459
      5 O           4.5101    0.6607   -2.0361 O.3     1  LIG1       -0.4794
      6 O           4.6445   -1.0259    2.4009 O.3     1  LIG1       -0.4794
      7 N           2.5455    0.3847   -0.7796 N.ar    1  LIG1       -0.1594
      8 N           2.6683   -0.4399    1.4390 N.ar    1  LIG1       -0.1594
      9 C          -1.5808    0.2142   -0.6705 C.3     1  LIG1        0.1609
     10 C          -0.0791    0.6590   -0.6027 C.3     1  LIG1        0.1791
     11 C          -2.3814    0.6674    0.5834 C.ar    1  LIG1       -0.0075
     12 C          -1.8032   -1.3321   -0.8499 C.ar    1  LIG1       -0.0075
     13 C          -2.1601    0.0707    1.8395 C.ar    1  LIG1       -0.0554
     14 C          -3.0962   -1.8041   -1.1728 C.ar    1  LIG1       -0.0554
     15 C          -3.3624    1.6741    0.5068 C.ar    1  LIG1       -0.0554
     16 C          -0.7883   -2.2940   -0.7172 C.ar    1  LIG1       -0.0554
     17 C           0.0758    2.2013   -0.5370 C.2     1  LIG1        0.0856
     18 C          -1.6480    0.6168   -3.0998 C.3     1  LIG1        0.0382
     19 C          -2.8979    0.4523    2.9639 C.ar    1  LIG1       -0.0614
     20 C          -3.3549   -3.1635   -1.3653 C.ar    1  LIG1       -0.0614
     21 C          -4.1049    2.0515    1.6296 C.ar    1  LIG1       -0.0614
     22 C          -1.0505   -3.6577   -0.8918 C.ar    1  LIG1       -0.0614
     23 C          -3.8745    1.4384    2.8575 C.ar    1  LIG1       -0.0617
     24 C          -2.3305   -4.0919   -1.2209 C.ar    1  LIG1       -0.0617
     25 C           1.9967    0.0671    0.3977 C.ar    1  LIG1        0.3249
     26 C           3.8751    0.3106   -0.8583 C.ar    1  LIG1        0.2240
     27 C           3.9990   -0.5351    1.2953 C.ar    1  LIG1        0.2240
     28 C           4.6697   -0.1492    0.1575 C.ar    1  LIG1        0.0617
     29 C           3.6207    1.2909   -2.9607 C.3     1  LIG1        0.0804
     30 C           5.6588   -1.9753    2.0980 C.3     1  LIG1        0.0804
     31 H           0.3850    0.3112   -1.5348 H       1  LIG1        0.0834
     32 H          -1.3927   -0.6913    1.9539 H       1  LIG1        0.0621
     33 H          -3.9110   -1.0901   -1.2867 H       1  LIG1        0.0621
     34 H          -3.5427    2.1892   -0.4344 H       1  LIG1        0.0621
     35 H           0.2298   -2.0156   -0.4702 H       1  LIG1        0.0621
     36 H          -2.3856    0.8794   -3.8638 H       1  LIG1        0.0524
     37 H          -1.3386   -0.4169   -3.2751 H       1  LIG1        0.0524
     38 H          -0.7974    1.2846   -3.2329 H       1  LIG1        0.0524
     39 H          -2.6915   -0.0120    3.9231 H       1  LIG1        0.0618
     40 H          -4.3579   -3.4890   -1.6252 H       1  LIG1        0.0618
     41 H          -4.8458    2.8397    1.5414 H       1  LIG1        0.0618
     42 H          -0.2448   -4.3764   -0.7680 H       1  LIG1        0.0618
     43 H          -4.4370    1.7449    3.7332 H       1  LIG1        0.0618
     44 H          -2.5276   -5.1499   -1.3617 H       1  LIG1        0.0618
     45 H           5.7412   -0.1893    0.0518 H       1  LIG1        0.0724
     46 H           4.2065    1.5734   -3.8412 H       1  LIG1        0.0660
     47 H           3.1889    2.2051   -2.5387 H       1  LIG1        0.0660
     48 H           2.8391    0.5987   -3.2940 H       1  LIG1        0.0660
     49 H           5.8732   -2.5396    3.0108 H       1  LIG1        0.0660
     50 H           6.5820   -1.4699    1.7966 H       1  LIG1        0.0660
     51 H           5.3396   -2.6898    1.3305 H       1  LIG1        0.0660
@<TRIPOS>BOND
     1     1     9    1
     2     1    18    1
     3     2    10    1
     4     2    25    1
     5     3    17   ar
     6     4    17   ar
     7     5    26    1
     8     5    29    1
     9     6    27    1
    10     6    30    1
    11     7    25   ar
    12     7    26   ar
    13     8    25   ar
    14     8    27   ar
    15     9    10    1
    16     9    11    1
    17     9    12    1
    18    10    17    1
    19    11    13   ar
    20    11    15   ar
    21    12    14   ar
    22    12    16   ar
    23    13    19   ar
    24    14    20   ar
    25    15    21   ar
    26    16    22   ar
    27    19    23   ar
    28    20    24   ar
    29    21    23   ar
    30    22    24   ar
    31    26    28   ar
    32    27    28   ar
    33    10    31    1
    34    13    32    1
    35    14    33    1
    36    15    34    1
    37    16    35    1
    38    18    36    1
    39    18    37    1
    40    18    38    1
    41    19    39    1
    42    20    40    1
    43    21    41    1
    44    22    42    1
    45    23    43    1
    46    24    44    1
    47    28    45    1
    48    29    46    1
    49    29    47    1
    50    29    48    1
    51    30    49    1
    52    30    50    1
    53    30    51    1
@<TRIPOS>MOLECULE
177236
 51 53 0 0 0
SMALL
GASTEIGER

@<TRIPOS>ATOM
      1 O          -2.2735    0.7874   -1.8343 O.3     1  LIG1       -0.3632
      2 O           0.5905    0.2186    0.6054 O.3     1  LIG1       -0.4494
      3 O           1.1475    2.7761   -0.0388 O.co2   1  LIG1       -0.5459
      4 O          -0.8709    3.0459   -1.0272 O.co2   1  LIG1       -0.5459
      5 O           4.2165   -0.7102   -2.2085 O.3     1  LIG1       -0.4794
      6 O           4.7540   -0.0273    2.4707 O.3     1  LIG1       -0.4794
      7 N           2.3722   -0.2570   -0.8272 N.ar    1  LIG1       -0.1594
      8 N           2.7075    0.0706    1.5032 N.ar    1  LIG1       -0.1594
      9 C          -1.5953    0.2504   -0.6481 C.3     1  LIG1        0.1609
     10 C          -0.1172    0.7905   -0.5375 C.3     1  LIG1        0.1791
     11 C          -2.4224    0.6677    0.6031 C.ar    1  LIG1       -0.0075
     12 C          -1.7544   -1.3044   -0.8370 C.ar    1  LIG1       -0.0075
     13 C          -2.1107    0.1705    1.8839 C.ar    1  LIG1       -0.0554
     14 C          -0.8151   -2.2527   -0.4059 C.ar    1  LIG1       -0.0554
     15 C          -3.4931    1.5739    0.5072 C.ar    1  LIG1       -0.0554
     16 C          -2.9172   -1.8089   -1.4704 C.ar    1  LIG1       -0.0554
     17 C           0.0443    2.3463   -0.4999 C.2     1  LIG1        0.0856
     18 C          -1.5729    0.7143   -3.0693 C.3     1  LIG1        0.0382
     19 C          -2.8246    0.5718    3.0166 C.ar    1  LIG1       -0.0614
     20 C          -0.9986   -3.6220   -0.6403 C.ar    1  LIG1       -0.0614
     21 C          -4.2191    1.9643    1.6373 C.ar    1  LIG1       -0.0614
     22 C          -3.0901   -3.1701   -1.7306 C.ar    1  LIG1       -0.0614
     23 C          -3.8819    1.4670    2.8927 C.ar    1  LIG1       -0.0617
     24 C          -2.1244   -4.0784   -1.3182 C.ar    1  LIG1       -0.0617
     25 C           1.9490    0.0827    0.3986 C.ar    1  LIG1        0.3249
     26 C           3.6893   -0.4211   -0.9622 C.ar    1  LIG1        0.2240
     27 C           4.0220   -0.1182    1.3155 C.ar    1  LIG1        0.2240
     28 C           4.5779   -0.3526    0.0790 C.ar    1  LIG1        0.0617
     29 C           3.2312   -0.6665   -3.2396 C.3     1  LIG1        0.0804
     30 C           5.9339   -0.8156    2.5118 C.3     1  LIG1        0.0804
     31 H           0.3782    0.4841   -1.4641 H       1  LIG1        0.0834
     32 H          -1.2822   -0.5201    2.0186 H       1  LIG1        0.0621
     33 H           0.0782   -1.9621    0.1330 H       1  LIG1        0.0621
     34 H          -3.7458    2.0146   -0.4556 H       1  LIG1        0.0621
     35 H          -3.6941   -1.1164   -1.7952 H       1  LIG1        0.0621
     36 H          -2.2453    1.0728   -3.8540 H       1  LIG1        0.0524
     37 H          -1.2922   -0.3137   -3.3147 H       1  LIG1        0.0524
     38 H          -0.6895    1.3556   -3.0860 H       1  LIG1        0.0524
     39 H          -2.5346    0.1975    3.9935 H       1  LIG1        0.0618
     40 H          -0.2509   -4.3276   -0.2900 H       1  LIG1        0.0618
     41 H          -5.0278    2.6803    1.5315 H       1  LIG1        0.0618
     42 H          -3.9758   -3.5084   -2.2593 H       1  LIG1        0.0618
     43 H          -4.4256    1.7930    3.7730 H       1  LIG1        0.0618
     44 H          -2.2520   -5.1381   -1.5154 H       1  LIG1        0.0618
     45 H           5.6337   -0.4699   -0.0966 H       1  LIG1        0.0724
     46 H           3.7370   -0.8534   -4.1918 H       1  LIG1        0.0660
     47 H           2.7578    0.3194   -3.3025 H       1  LIG1        0.0660
     48 H           2.4818   -1.4542   -3.1033 H       1  LIG1        0.0660
     49 H           6.3330   -0.7672    3.5294 H       1  LIG1        0.0660
     50 H           6.7046   -0.4186    1.8431 H       1  LIG1        0.0660
     51 H           5.7195   -1.8656    2.2849 H       1  LIG1        0.0660
@<TRIPOS>BOND
     1     1     9    1
     2     1    18    1
     3     2    10    1
     4     2    25    1
     5     3    17   ar
     6     4    17   ar
     7     5    26    1
     8     5    29    1
     9     6    27    1
    10     6    30    1
    11     7    25   ar
    12     7    26   ar
    13     8    25   ar
    14     8    27   ar
    15     9    10    1
    16     9    11    1
    17     9    12    1
    18    10    17    1
    19    11    13   ar
    20    11    15   ar
    21    12    14   ar
    22    12    16   ar
    23    13    19   ar
    24    14    20   ar
    25    15    21   ar
    26    16    22   ar
    27    19    23   ar
    28    20    24   ar
    29    21    23   ar
    30    22    24   ar
    31    26    28   ar
    32    27    28   ar
    33    10    31    1
    34    13    32    1
    35    14    33    1
    36    15    34    1
    37    16    35    1
    38    18    36    1
    39    18    37    1
    40    18    38    1
    41    19    39    1
    42    20    40    1
    43    21    41    1
    44    22    42    1
    45    23    43    1
    46    24    44    1
    47    28    45    1
    48    29    46    1
    49    29    47    1
    50    29    48    1
    51    30    49    1
    52    30    50    1
    53    30    51    1
@<TRIPOS>MOLECULE
177236
 51 53 0 0 0
SMALL
GASTEIGER

@<TRIPOS>ATOM
      1 O          -2.3224    0.7369   -1.8591 O.3     1  LIG1       -0.3632
      2 O           0.5842    0.2372    0.5446 O.3     1  LIG1       -0.4494
      3 O           1.2824    2.7282   -0.4119 O.co2   1  LIG1       -0.5459
      4 O          -0.8795    3.0522   -0.9916 O.co2   1  LIG1       -0.5459
      5 O           4.2667   -0.7808   -2.1770 O.3     1  LIG1       -0.4794
      6 O           4.6457   -0.3143    2.5444 O.3     1  LIG1       -0.4794
      7 N           2.3976   -0.2499   -0.8540 N.ar    1  LIG1       -0.1594
      8 N           2.6626   -0.0153    1.4958 N.ar    1  LIG1       -0.1594
      9 C          -1.5871    0.2487   -0.6911 C.3     1  LIG1        0.1609
     10 C          -0.1082    0.7839   -0.6220 C.3     1  LIG1        0.1791
     11 C          -2.3837    0.6819    0.5747 C.ar    1  LIG1       -0.0075
     12 C          -1.7421   -1.3080   -0.8531 C.ar    1  LIG1       -0.0075
     13 C          -2.1809    0.0509    1.8176 C.ar    1  LIG1       -0.0554
     14 C          -0.6885   -2.2267   -0.7397 C.ar    1  LIG1       -0.0554
     15 C          -3.3338    1.7170    0.5198 C.ar    1  LIG1       -0.0554
     16 C          -3.0231   -1.8372   -1.1393 C.ar    1  LIG1       -0.0554
     17 C           0.0978    2.3315   -0.6444 C.2     1  LIG1        0.0856
     18 C          -1.6322    0.7290   -3.0981 C.3     1  LIG1        0.0382
     19 C          -2.9121    0.4253    2.9486 C.ar    1  LIG1       -0.0614
     20 C          -0.9003   -3.6022   -0.8942 C.ar    1  LIG1       -0.0614
     21 C          -4.0686    2.0892    1.6487 C.ar    1  LIG1       -0.0614
     22 C          -3.2340   -3.2075   -1.3108 C.ar    1  LIG1       -0.0614
     23 C          -3.8608    1.4403    2.8623 C.ar    1  LIG1       -0.0617
     24 C          -2.1698   -4.0921   -1.1838 C.ar    1  LIG1       -0.0617
     25 C           1.9439    0.0677    0.3675 C.ar    1  LIG1        0.3249
     26 C           3.7083   -0.4857   -0.9447 C.ar    1  LIG1        0.2240
     27 C           3.9730   -0.2650    1.3515 C.ar    1  LIG1        0.2240
     28 C           4.5573   -0.5102    0.1303 C.ar    1  LIG1        0.0617
     29 C           3.3439   -0.5968   -3.2489 C.3     1  LIG1        0.0804
     30 C           6.0459   -0.0868    2.4772 C.3     1  LIG1        0.0804
     31 H           0.3761    0.4359   -1.5423 H       1  LIG1        0.0834
     32 H          -1.4374   -0.7374    1.9143 H       1  LIG1        0.0621
     33 H           0.3224   -1.9052   -0.5249 H       1  LIG1        0.0621
     34 H          -3.4818    2.2635   -0.4109 H       1  LIG1        0.0621
     35 H          -3.8692   -1.1574   -1.2389 H       1  LIG1        0.0621
     36 H          -2.3629    0.9249   -3.8882 H       1  LIG1        0.0524
     37 H          -1.1694   -0.2410   -3.3007 H       1  LIG1        0.0524
     38 H          -0.8824    1.5216   -3.1451 H       1  LIG1        0.0524
     39 H          -2.7266   -0.0708    3.8962 H       1  LIG1        0.0618
     40 H          -0.0632   -4.2864   -0.7855 H       1  LIG1        0.0618
     41 H          -4.7854    2.9012    1.5743 H       1  LIG1        0.0618
     42 H          -4.2297   -3.5741   -1.5413 H       1  LIG1        0.0618
     43 H          -4.4216    1.7395    3.7418 H       1  LIG1        0.0618
     44 H          -2.3279   -5.1587   -1.3083 H       1  LIG1        0.0618
     45 H           5.6021   -0.7366   -0.0057 H       1  LIG1        0.0724
     46 H           3.8775   -0.7940   -4.1838 H       1  LIG1        0.0660
     47 H           2.9741    0.4341   -3.2878 H       1  LIG1        0.0660
     48 H           2.5155   -1.3113   -3.1840 H       1  LIG1        0.0660
     49 H           6.4102    0.0685    3.4974 H       1  LIG1        0.0660
     50 H           6.2870    0.8108    1.8970 H       1  LIG1        0.0660
     51 H           6.5623   -0.9645    2.0742 H       1  LIG1        0.0660
@<TRIPOS>BOND
     1     1     9    1
     2     1    18    1
     3     2    10    1
     4     2    25    1
     5     3    17   ar
     6     4    17   ar
     7     5    26    1
     8     5    29    1
     9     6    27    1
    10     6    30    1
    11     7    25   ar
    12     7    26   ar
    13     8    25   ar
    14     8    27   ar
    15     9    10    1
    16     9    11    1
    17     9    12    1
    18    10    17    1
    19    11    13   ar
    20    11    15   ar
    21    12    14   ar
    22    12    16   ar
    23    13    19   ar
    24    14    20   ar
    25    15    21   ar
    26    16    22   ar
    27    19    23   ar
    28    20    24   ar
    29    21    23   ar
    30    22    24   ar
    31    26    28   ar
    32    27    28   ar
    33    10    31    1
    34    13    32    1
    35    14    33    1
    36    15    34    1
    37    16    35    1
    38    18    36    1
    39    18    37    1
    40    18    38    1
    41    19    39    1
    42    20    40    1
    43    21    41    1
    44    22    42    1
    45    23    43    1
    46    24    44    1
    47    28    45    1
    48    29    46    1
    49    29    47    1
    50    29    48    1
    51    30    49    1
    52    30    50    1
    53    30    51    1
@<TRIPOS>MOLECULE
177236
 51 53 0 0 0
SMALL
GASTEIGER

@<TRIPOS>ATOM
      1 O          -2.2600    0.7877   -1.8290 O.3     1  LIG1       -0.3632
      2 O           0.6254    0.0424    0.5236 O.3     1  LIG1       -0.4494
      3 O           0.1131    2.7216    0.6258 O.co2   1  LIG1       -0.5459
      4 O           0.2502    2.7779   -1.6434 O.co2   1  LIG1       -0.5459
      5 O           4.6466   -1.0464    2.3998 O.3     1  LIG1       -0.4794
      6 O           4.5168    0.6836   -2.0201 O.3     1  LIG1       -0.4794
      7 N           2.6706   -0.4561    1.4400 N.ar    1  LIG1       -0.1594
      8 N           2.5502    0.3901   -0.7715 N.ar    1  LIG1       -0.1594
      9 C          -1.5770    0.2099   -0.6683 C.3     1  LIG1        0.1609
     10 C          -0.0753    0.6549   -0.5982 C.3     1  LIG1        0.1791
     11 C          -2.3779    0.6620    0.5861 C.ar    1  LIG1       -0.0075
     12 C          -1.8005   -1.3360   -0.8500 C.ar    1  LIG1       -0.0075
     13 C          -2.1587    0.0627    1.8412 C.ar    1  LIG1       -0.0554
     14 C          -0.7853   -2.2985   -0.7255 C.ar    1  LIG1       -0.0554
     15 C          -3.3570    1.6708    0.5104 C.ar    1  LIG1       -0.0554
     16 C          -3.0954   -1.8068   -1.1678 C.ar    1  LIG1       -0.0554
     17 C           0.0802    2.1982   -0.5251 C.2     1  LIG1        0.0856
     18 C          -1.6425    0.6160   -3.0967 C.3     1  LIG1        0.0382
     19 C          -2.8968    0.4435    2.9656 C.ar    1  LIG1       -0.0614
     20 C          -1.0490   -3.6618   -0.9021 C.ar    1  LIG1       -0.0614
     21 C          -4.0994    2.0477    1.6334 C.ar    1  LIG1       -0.0614
     22 C          -3.3561   -3.1656   -1.3616 C.ar    1  LIG1       -0.0614
     23 C          -3.8712    1.4319    2.8605 C.ar    1  LIG1       -0.0617
     24 C          -2.3311   -4.0947   -1.2247 C.ar    1  LIG1       -0.0617
     25 C           1.9996    0.0600    0.4013 C.ar    1  LIG1        0.3249
     26 C           4.0014   -0.5466    1.2968 C.ar    1  LIG1        0.2240
     27 C           3.8804    0.3195   -0.8477 C.ar    1  LIG1        0.2240
     28 C           4.6738   -0.1481    0.1654 C.ar    1  LIG1        0.0617
     29 C           5.6554   -1.9987    2.0879 C.3     1  LIG1        0.0804
     30 C           3.6281    1.3234   -2.9393 C.3     1  LIG1        0.0804
     31 H           0.3895    0.3098   -1.5311 H       1  LIG1        0.0834
     32 H          -1.3927   -0.7011    1.9547 H       1  LIG1        0.0621
     33 H           0.2343   -2.0207   -0.4844 H       1  LIG1        0.0621
     34 H          -3.5356    2.1877   -0.4300 H       1  LIG1        0.0621
     35 H          -3.9105   -1.0921   -1.2759 H       1  LIG1        0.0621
     36 H          -2.3790    0.8812   -3.8609 H       1  LIG1        0.0524
     37 H          -1.3345   -0.4178   -3.2737 H       1  LIG1        0.0524
     38 H          -0.7906    1.2827   -3.2274 H       1  LIG1        0.0524
     39 H          -2.6918   -0.0224    3.9244 H       1  LIG1        0.0618
     40 H          -0.2430   -4.3810   -0.7846 H       1  LIG1        0.0618
     41 H          -4.8387    2.8378    1.5460 H       1  LIG1        0.0618
     42 H          -4.3603   -3.4901   -1.6166 H       1  LIG1        0.0618
     43 H          -4.4334    1.7385    3.7364 H       1  LIG1        0.0618
     44 H          -2.5293   -5.1525   -1.3668 H       1  LIG1        0.0618
     45 H           5.7457   -0.1838    0.0620 H       1  LIG1        0.0724
     46 H           5.8693   -2.5711    2.9956 H       1  LIG1        0.0660
     47 H           6.5805   -1.4963    1.7882 H       1  LIG1        0.0660
     48 H           5.3319   -2.7057    1.3152 H       1  LIG1        0.0660
     49 H           4.2150    1.6163   -3.8153 H       1  LIG1        0.0660
     50 H           3.1946    2.2320   -2.5079 H       1  LIG1        0.0660
     51 H           2.8479    0.6340   -3.2817 H       1  LIG1        0.0660
@<TRIPOS>BOND
     1     1     9    1
     2     1    18    1
     3     2    10    1
     4     2    25    1
     5     3    17   ar
     6     4    17   ar
     7     5    26    1
     8     5    29    1
     9     6    27    1
    10     6    30    1
    11     7    25   ar
    12     7    26   ar
    13     8    25   ar
    14     8    27   ar
    15     9    10    1
    16     9    11    1
    17     9    12    1
    18    10    17    1
    19    11    13   ar
    20    11    15   ar
    21    12    14   ar
    22    12    16   ar
    23    13    19   ar
    24    14    20   ar
    25    15    21   ar
    26    16    22   ar
    27    19    23   ar
    28    20    24   ar
    29    21    23   ar
    30    22    24   ar
    31    26    28   ar
    32    27    28   ar
    33    10    31    1
    34    13    32    1
    35    14    33    1
    36    15    34    1
    37    16    35    1
    38    18    36    1
    39    18    37    1
    40    18    38    1
    41    19    39    1
    42    20    40    1
    43    21    41    1
    44    22    42    1
    45    23    43    1
    46    24    44    1
    47    28    45    1
    48    29    46    1
    49    29    47    1
    50    29    48    1
    51    30    49    1
    52    30    50    1
    53    30    51    1
@<TRIPOS>MOLECULE
177236
 51 53 0 0 0
SMALL
GASTEIGER

@<TRIPOS>ATOM
      1 O          -2.2725    0.7976   -1.8296 O.3     1  LIG1       -0.3632
      2 O           0.6181    0.0552    0.5155 O.3     1  LIG1       -0.4494
      3 O           0.1253    2.7293    0.6334 O.co2   1  LIG1       -0.5459
      4 O           0.2118    2.8007   -1.6384 O.co2   1  LIG1       -0.5459
      5 O           4.5823   -1.2291    2.3292 O.3     1  LIG1       -0.4794
      6 O           4.5002    0.6701   -2.0458 O.3     1  LIG1       -0.4794
      7 N           2.6587   -0.5200    1.3916 N.ar    1  LIG1       -0.1594
      8 N           2.5387    0.4144   -0.7810 N.ar    1  LIG1       -0.1594
      9 C          -1.5856    0.2207   -0.6707 C.3     1  LIG1        0.1609
     10 C          -0.0855    0.6699   -0.6013 C.3     1  LIG1        0.1791
     11 C          -2.3836    0.6717    0.5860 C.ar    1  LIG1       -0.0075
     12 C          -1.8064   -1.3250   -0.8519 C.ar    1  LIG1       -0.0075
     13 C          -2.1606    0.0711    1.8402 C.ar    1  LIG1       -0.0554
     14 C          -0.7892   -2.2863   -0.7315 C.ar    1  LIG1       -0.0554
     15 C          -3.3625    1.6805    0.5141 C.ar    1  LIG1       -0.0554
     16 C          -3.1015   -1.7988   -1.1653 C.ar    1  LIG1       -0.0554
     17 C           0.0686    2.2125   -0.5197 C.2     1  LIG1        0.0856
     18 C          -1.6561    0.6283   -3.0980 C.3     1  LIG1        0.0382
     19 C          -2.8952    0.4510    2.9671 C.ar    1  LIG1       -0.0614
     20 C          -1.0511   -3.6495   -0.9056 C.ar    1  LIG1       -0.0614
     21 C          -4.1018    2.0563    1.6395 C.ar    1  LIG1       -0.0614
     22 C          -3.3606   -3.1576   -1.3573 C.ar    1  LIG1       -0.0614
     23 C          -3.8698    1.4391    2.8654 C.ar    1  LIG1       -0.0617
     24 C          -2.3340   -4.0854   -1.2236 C.ar    1  LIG1       -0.0617
     25 C           1.9901    0.0508    0.3801 C.ar    1  LIG1        0.3249
     26 C           3.9874   -0.6411    1.2463 C.ar    1  LIG1        0.2240
     27 C           3.8625    0.2938   -0.8770 C.ar    1  LIG1        0.2240
     28 C           4.6517   -0.2380    0.1101 C.ar    1  LIG1        0.0617
     29 C           5.9953   -1.3559    2.3023 C.3     1  LIG1        0.0804
     30 C           3.6182    1.3360   -2.9519 C.3     1  LIG1        0.0804
     31 H           0.3782    0.3327   -1.5378 H       1  LIG1        0.0834
     32 H          -1.3942   -0.6930    1.9504 H       1  LIG1        0.0621
     33 H           0.2301   -2.0078   -0.4934 H       1  LIG1        0.0621
     34 H          -3.5437    2.1983   -0.4255 H       1  LIG1        0.0621
     35 H          -3.9191   -1.0849   -1.2702 H       1  LIG1        0.0621
     36 H          -2.3944    0.8916   -3.8615 H       1  LIG1        0.0524
     37 H          -1.3453   -0.4048   -3.2761 H       1  LIG1        0.0524
     38 H          -0.8064    1.2973   -3.2298 H       1  LIG1        0.0524
     39 H          -2.6876   -0.0162    3.9242 H       1  LIG1        0.0618
     40 H          -0.2442   -4.3674   -0.7902 H       1  LIG1        0.0618
     41 H          -4.8415    2.8461    1.5551 H       1  LIG1        0.0618
     42 H          -4.3651   -3.4838   -1.6079 H       1  LIG1        0.0618
     43 H          -4.4301    1.7445    3.7430 H       1  LIG1        0.0618
     44 H          -2.5311   -5.1434   -1.3635 H       1  LIG1        0.0618
     45 H           5.7146   -0.3272   -0.0383 H       1  LIG1        0.0724
     46 H           6.3093   -1.8060    3.2491 H       1  LIG1        0.0660
     47 H           6.4820   -0.3777    2.2228 H       1  LIG1        0.0660
     48 H           6.3160   -2.0239    1.4964 H       1  LIG1        0.0660
     49 H           4.2051    1.6305   -3.8276 H       1  LIG1        0.0660
     50 H           3.2025    2.2477   -2.5070 H       1  LIG1        0.0660
     51 H           2.8243    0.6651   -3.2979 H       1  LIG1        0.0660
@<TRIPOS>BOND
     1     1     9    1
     2     1    18    1
     3     2    10    1
     4     2    25    1
     5     3    17   ar
     6     4    17   ar
     7     5    26    1
     8     5    29    1
     9     6    27    1
    10     6    30    1
    11     7    25   ar
    12     7    26   ar
    13     8    25   ar
    14     8    27   ar
    15     9    10    1
    16     9    11    1
    17     9    12    1
    18    10    17    1
    19    11    13   ar
    20    11    15   ar
    21    12    14   ar
    22    12    16   ar
    23    13    19   ar
    24    14    20   ar
    25    15    21   ar
    26    16    22   ar
    27    19    23   ar
    28    20    24   ar
    29    21    23   ar
    30    22    24   ar
    31    26    28   ar
    32    27    28   ar
    33    10    31    1
    34    13    32    1
    35    14    33    1
    36    15    34    1
    37    16    35    1
    38    18    36    1
    39    18    37    1
    40    18    38    1
    41    19    39    1
    42    20    40    1
    43    21    41    1
    44    22    42    1
    45    23    43    1
    46    24    44    1
    47    28    45    1
    48    29    46    1
    49    29    47    1
    50    29    48    1
    51    30    49    1
    52    30    50    1
    53    30    51    1
@<TRIPOS>MOLECULE
177236
 51 53 0 0 0
SMALL
GASTEIGER

@<TRIPOS>ATOM
      1 O          -2.4416    0.9936   -1.5098 O.3     1  LIG1       -0.3632
      2 O           0.3403    0.6626   -1.9052 O.3     1  LIG1       -0.4494
      3 O           1.5825   -0.6764    0.1386 O.co2   1  LIG1       -0.5459
      4 O           0.8769    0.9010    1.6124 O.co2   1  LIG1       -0.5459
      5 O           3.3465    2.1103   -5.1414 O.3     1  LIG1       -0.4794
      6 O           3.6113    3.8516   -0.8031 O.3     1  LIG1       -0.4794
      7 N           1.8379    1.3412   -3.5001 N.ar    1  LIG1       -0.1594
      8 N           1.9466    2.2778   -1.3229 N.ar    1  LIG1       -0.1594
      9 C          -1.6320    0.3431   -0.4560 C.3     1  LIG1        0.1609
     10 C          -0.1508    0.8591   -0.5420 C.3     1  LIG1        0.1791
     11 C          -2.4299    0.6758    0.8403 C.ar    1  LIG1       -0.0075
     12 C          -1.7338   -1.1840   -0.7887 C.ar    1  LIG1       -0.0075
     13 C          -3.6426    0.0113    1.1273 C.ar    1  LIG1       -0.0554
     14 C          -2.4918   -1.6549   -1.8848 C.ar    1  LIG1       -0.0554
     15 C          -2.0580    1.7124    1.7145 C.ar    1  LIG1       -0.0554
     16 C          -1.1389   -2.1559    0.0345 C.ar    1  LIG1       -0.0554
     17 C           0.8534    0.2933    0.4972 C.2     1  LIG1        0.0856
     18 C          -2.3385    2.3992   -1.6569 C.3     1  LIG1        0.0382
     19 C          -4.4190    0.3422    2.2425 C.ar    1  LIG1       -0.0614
     20 C          -2.6408   -3.0208   -2.1455 C.ar    1  LIG1       -0.0614
     21 C          -2.8385    2.0533    2.8248 C.ar    1  LIG1       -0.0614
     22 C          -1.2632   -3.5227   -0.2423 C.ar    1  LIG1       -0.0614
     23 C          -4.0172    1.3667    3.0914 C.ar    1  LIG1       -0.0617
     24 C          -2.0184   -3.9557   -1.3271 C.ar    1  LIG1       -0.0617
     25 C           1.4393    1.4298   -2.2241 C.ar    1  LIG1        0.3249
     26 C           2.8769    2.1203   -3.8383 C.ar    1  LIG1        0.2240
     27 C           3.0080    2.9944   -1.7053 C.ar    1  LIG1        0.2240
     28 C           3.5197    2.9671   -2.9734 C.ar    1  LIG1        0.0617
     29 C           2.5706    1.2755   -5.9967 C.3     1  LIG1        0.0804
     30 C           3.1512    3.6364    0.5339 C.3     1  LIG1        0.0804
     31 H          -0.1828    1.9424   -0.3678 H       1  LIG1        0.0834
     32 H          -4.0003   -0.7795    0.4716 H       1  LIG1        0.0621
     33 H          -2.9920   -0.9526   -2.5476 H       1  LIG1        0.0621
     34 H          -1.1465    2.2833    1.5537 H       1  LIG1        0.0621
     35 H          -0.5543   -1.8639    0.9050 H       1  LIG1        0.0621
     36 H          -3.0844    2.7082   -2.3950 H       1  LIG1        0.0524
     37 H          -1.3634    2.6941   -2.0507 H       1  LIG1        0.0524
     38 H          -2.5541    2.9285   -0.7271 H       1  LIG1        0.0524
     39 H          -5.3371   -0.2028    2.4392 H       1  LIG1        0.0618
     40 H          -3.2394   -3.3448   -2.9910 H       1  LIG1        0.0618
     41 H          -2.5092    2.8552    3.4794 H       1  LIG1        0.0618
     42 H          -0.7561   -4.2411    0.3958 H       1  LIG1        0.0618
     43 H          -4.6167    1.6290    3.9568 H       1  LIG1        0.0618
     44 H          -2.1149   -5.0165   -1.5358 H       1  LIG1        0.0618
     45 H           4.3634    3.5744   -3.2705 H       1  LIG1        0.0724
     46 H           2.9858    1.3578   -7.0056 H       1  LIG1        0.0660
     47 H           1.5281    1.6103   -6.0413 H       1  LIG1        0.0660
     48 H           2.6367    0.2249   -5.6930 H       1  LIG1        0.0660
     49 H           3.7169    4.3067    1.1886 H       1  LIG1        0.0660
     50 H           3.3445    2.6092    0.8620 H       1  LIG1        0.0660
     51 H           2.0910    3.8944    0.6341 H       1  LIG1        0.0660
@<TRIPOS>BOND
     1     1     9    1
     2     1    18    1
     3     2    10    1
     4     2    25    1
     5     3    17   ar
     6     4    17   ar
     7     5    26    1
     8     5    29    1
     9     6    27    1
    10     6    30    1
    11     7    25   ar
    12     7    26   ar
    13     8    25   ar
    14     8    27   ar
    15     9    10    1
    16     9    11    1
    17     9    12    1
    18    10    17    1
    19    11    13   ar
    20    11    15   ar
    21    12    14   ar
    22    12    16   ar
    23    13    19   ar
    24    14    20   ar
    25    15    21   ar
    26    16    22   ar
    27    19    23   ar
    28    20    24   ar
    29    21    23   ar
    30    22    24   ar
    31    26    28   ar
    32    27    28   ar
    33    10    31    1
    34    13    32    1
    35    14    33    1
    36    15    34    1
    37    16    35    1
    38    18    36    1
    39    18    37    1
    40    18    38    1
    41    19    39    1
    42    20    40    1
    43    21    41    1
    44    22    42    1
    45    23    43    1
    46    24    44    1
    47    28    45    1
    48    29    46    1
    49    29    47    1
    50    29    48    1
    51    30    49    1
    52    30    50    1
    53    30    51    1
@<TRIPOS>MOLECULE
177236
 51 53 0 0 0
SMALL
GASTEIGER

@<TRIPOS>ATOM
      1 O          -2.2308    0.8047   -1.8248 O.3     1  LIG1       -0.3632
      2 O           0.6421    0.0187    0.5282 O.3     1  LIG1       -0.4494
      3 O           0.1663    2.6957    0.6422 O.co2   1  LIG1       -0.5459
      4 O           0.3042    2.7593   -1.6266 O.co2   1  LIG1       -0.5459
      5 O           4.4989    0.2900   -2.1310 O.3     1  LIG1       -0.4794
      6 O           4.6328   -1.2305    2.3626 O.3     1  LIG1       -0.4794
      7 N           2.5556    0.2294   -0.8114 N.ar    1  LIG1       -0.1594
      8 N           2.6796   -0.5292    1.4317 N.ar    1  LIG1       -0.1594
      9 C          -1.5607    0.2102   -0.6641 C.3     1  LIG1        0.1609
     10 C          -0.0535    0.6381   -0.5902 C.3     1  LIG1        0.1791
     11 C          -2.3624    0.6634    0.5890 C.ar    1  LIG1       -0.0075
     12 C          -1.8031   -1.3327   -0.8530 C.ar    1  LIG1       -0.0075
     13 C          -3.3584    1.6553    0.5082 C.ar    1  LIG1       -0.0554
     14 C          -3.0939   -1.7841   -1.2138 C.ar    1  LIG1       -0.0554
     15 C          -2.1317    0.0770    1.8481 C.ar    1  LIG1       -0.0554
     16 C          -0.8103   -2.3123   -0.6883 C.ar    1  LIG1       -0.0554
     17 C           0.1244    2.1783   -0.5124 C.2     1  LIG1        0.0856
     18 C          -1.6139    0.6284   -3.0923 C.3     1  LIG1        0.0382
     19 C          -4.1036    2.0296    1.6302 C.ar    1  LIG1       -0.0614
     20 C          -3.3691   -3.1389   -1.4160 C.ar    1  LIG1       -0.0614
     21 C          -2.8717    0.4562    2.9718 C.ar    1  LIG1       -0.0614
     22 C          -1.0893   -3.6714   -0.8724 C.ar    1  LIG1       -0.0614
     23 C          -3.8617    1.4282    2.8616 C.ar    1  LIG1       -0.0617
     24 C          -2.3651   -4.0842   -1.2419 C.ar    1  LIG1       -0.0617
     25 C           2.0139   -0.0229    0.3856 C.ar    1  LIG1        0.3249
     26 C           3.8734    0.0497   -0.9204 C.ar    1  LIG1        0.2240
     27 C           4.0020   -0.6857    1.2718 C.ar    1  LIG1        0.2240
     28 C           4.6617   -0.4176    0.0968 C.ar    1  LIG1        0.0617
     29 C           3.6023    0.8184   -3.1095 C.3     1  LIG1        0.0804
     30 C           5.8918   -0.6359    2.6517 C.3     1  LIG1        0.0804
     31 H           0.4034    0.2927   -1.5262 H       1  LIG1        0.0834
     32 H          -3.5506    2.1599   -0.4361 H       1  LIG1        0.0621
     33 H          -3.8940   -1.0574   -1.3499 H       1  LIG1        0.0621
     34 H          -1.3559   -0.6761    1.9656 H       1  LIG1        0.0621
     35 H           0.2038   -2.0530   -0.4076 H       1  LIG1        0.0621
     36 H          -2.3451    0.9081   -3.8566 H       1  LIG1        0.0524
     37 H          -1.3214   -0.4092   -3.2731 H       1  LIG1        0.0524
     38 H          -0.7518    1.2826   -3.2193 H       1  LIG1        0.0524
     39 H          -4.8572    2.8054    1.5383 H       1  LIG1        0.0618
     40 H          -4.3686   -3.4478   -1.7068 H       1  LIG1        0.0618
     41 H          -2.6571    0.0002    3.9333 H       1  LIG1        0.0618
     42 H          -0.2998   -4.4032   -0.7230 H       1  LIG1        0.0618
     43 H          -4.4269    1.7320    3.7365 H       1  LIG1        0.0618
     44 H          -2.5747   -5.1390   -1.3898 H       1  LIG1        0.0618
     45 H           5.7163   -0.5853   -0.0508 H       1  LIG1        0.0724
     46 H           4.1784    0.9992   -4.0223 H       1  LIG1        0.0660
     47 H           3.1762    1.7751   -2.7879 H       1  LIG1        0.0660
     48 H           2.8154    0.0959   -3.3548 H       1  LIG1        0.0660
     49 H           6.1510   -0.8864    3.6848 H       1  LIG1        0.0660
     50 H           5.8625    0.4564    2.5677 H       1  LIG1        0.0660
     51 H           6.6711   -1.0536    2.0058 H       1  LIG1        0.0660
@<TRIPOS>BOND
     1     1     9    1
     2     1    18    1
     3     2    10    1
     4     2    25    1
     5     3    17   ar
     6     4    17   ar
     7     5    26    1
     8     5    29    1
     9     6    27    1
    10     6    30    1
    11     7    25   ar
    12     7    26   ar
    13     8    25   ar
    14     8    27   ar
    15     9    10    1
    16     9    11    1
    17     9    12    1
    18    10    17    1
    19    11    13   ar
    20    11    15   ar
    21    12    14   ar
    22    12    16   ar
    23    13    19   ar
    24    14    20   ar
    25    15    21   ar
    26    16    22   ar
    27    19    23   ar
    28    20    24   ar
    29    21    23   ar
    30    22    24   ar
    31    26    28   ar
    32    27    28   ar
    33    10    31    1
    34    13    32    1
    35    14    33    1
    36    15    34    1
    37    16    35    1
    38    18    36    1
    39    18    37    1
    40    18    38    1
    41    19    39    1
    42    20    40    1
    43    21    41    1
    44    22    42    1
    45    23    43    1
    46    24    44    1
    47    28    45    1
    48    29    46    1
    49    29    47    1
    50    29    48    1
    51    30    49    1
    52    30    50    1
    53    30    51    1
@<TRIPOS>MOLECULE
177236
 51 53 0 0 0
SMALL
GASTEIGER

@<TRIPOS>ATOM
      1 O          -2.2878    0.7553   -1.8459 O.3     1  LIG1       -0.3632
      2 O           0.6163    0.2400    0.5615 O.3     1  LIG1       -0.4494
      3 O           1.2988    2.7399   -0.3278 O.co2   1  LIG1       -0.5459
      4 O          -0.8415    3.0640   -0.9841 O.co2   1  LIG1       -0.5459
      5 O           4.7576   -0.3541    2.4582 O.3     1  LIG1       -0.4794
      6 O           4.2431   -0.8633   -2.2057 O.3     1  LIG1       -0.4794
      7 N           2.7073   -0.0126    1.4886 N.ar    1  LIG1       -0.1594
      8 N           2.4080   -0.2745   -0.8569 N.ar    1  LIG1       -0.1594
      9 C          -1.5603    0.2601   -0.6753 C.3     1  LIG1        0.1609
     10 C          -0.0808    0.7947   -0.5987 C.3     1  LIG1        0.1791
     11 C          -2.3636    0.6919    0.5865 C.ar    1  LIG1       -0.0075
     12 C          -1.7200   -1.2961   -0.8414 C.ar    1  LIG1       -0.0075
     13 C          -2.1590    0.0674    1.8321 C.ar    1  LIG1       -0.0554
     14 C          -0.6788   -2.2225   -0.6940 C.ar    1  LIG1       -0.0554
     15 C          -3.3237    1.7177    0.5245 C.ar    1  LIG1       -0.0554
     16 C          -2.9969   -1.8179   -1.1643 C.ar    1  LIG1       -0.0554
     17 C           0.1242    2.3429   -0.6055 C.2     1  LIG1        0.0856
     18 C          -1.5946    0.7423   -3.0832 C.3     1  LIG1        0.0382
     19 C          -2.8978    0.4388    2.9591 C.ar    1  LIG1       -0.0614
     20 C          -0.8941   -3.5969   -0.8546 C.ar    1  LIG1       -0.0614
     21 C          -4.0668    2.0860    1.6493 C.ar    1  LIG1       -0.0614
     22 C          -3.2103   -3.1868   -1.3429 C.ar    1  LIG1       -0.0614
     23 C          -3.8566    1.4438    2.8660 C.ar    1  LIG1       -0.0617
     24 C          -2.1587   -4.0783   -1.1844 C.ar    1  LIG1       -0.0617
     25 C           1.9737    0.0616    0.3695 C.ar    1  LIG1        0.3249
     26 C           4.0068   -0.2867    1.3085 C.ar    1  LIG1        0.2240
     27 C           3.7120   -0.5455   -0.9685 C.ar    1  LIG1        0.2240
     28 C           4.5750   -0.5774    0.0923 C.ar    1  LIG1        0.0617
     29 C           5.7721    0.6469    2.4547 C.3     1  LIG1        0.0804
     30 C           3.3050   -0.6761   -3.2636 C.3     1  LIG1        0.0804
     31 H           0.4030    0.4577   -1.5229 H       1  LIG1        0.0834
     32 H          -1.4091   -0.7140    1.9341 H       1  LIG1        0.0621
     33 H           0.3266   -1.9095   -0.4444 H       1  LIG1        0.0621
     34 H          -3.4752    2.2586   -0.4088 H       1  LIG1        0.0621
     35 H          -3.8353   -1.1334   -1.2884 H       1  LIG1        0.0621
     36 H          -2.3223    0.9415   -3.8752 H       1  LIG1        0.0524
     37 H          -1.1364   -0.2303   -3.2839 H       1  LIG1        0.0524
     38 H          -0.8404    1.5309   -3.1291 H       1  LIG1        0.0524
     39 H          -2.7110   -0.0522    3.9094 H       1  LIG1        0.0618
     40 H          -0.0665   -4.2863   -0.7189 H       1  LIG1        0.0618
     41 H          -4.7928    2.8892    1.5691 H       1  LIG1        0.0618
     42 H          -4.2019   -3.5466   -1.6047 H       1  LIG1        0.0618
     43 H          -4.4237    1.7402    3.7424 H       1  LIG1        0.0618
     44 H          -2.3187   -5.1440   -1.3143 H       1  LIG1        0.0618
     45 H           5.6156   -0.8323   -0.0257 H       1  LIG1        0.0724
     46 H           6.0939    0.8026    3.4889 H       1  LIG1        0.0660
     47 H           5.4151    1.6056    2.0622 H       1  LIG1        0.0660
     48 H           6.6416    0.3018    1.8840 H       1  LIG1        0.0660
     49 H           3.8190   -0.8918   -4.2052 H       1  LIG1        0.0660
     50 H           2.9510    0.3602   -3.3078 H       1  LIG1        0.0660
     51 H           2.4664   -1.3761   -3.1758 H       1  LIG1        0.0660
@<TRIPOS>BOND
     1     1     9    1
     2     1    18    1
     3     2    10    1
     4     2    25    1
     5     3    17   ar
     6     4    17   ar
     7     5    26    1
     8     5    29    1
     9     6    27    1
    10     6    30    1
    11     7    25   ar
    12     7    26   ar
    13     8    25   ar
    14     8    27   ar
    15     9    10    1
    16     9    11    1
    17     9    12    1
    18    10    17    1
    19    11    13   ar
    20    11    15   ar
    21    12    14   ar
    22    12    16   ar
    23    13    19   ar
    24    14    20   ar
    25    15    21   ar
    26    16    22   ar
    27    19    23   ar
    28    20    24   ar
    29    21    23   ar
    30    22    24   ar
    31    26    28   ar
    32    27    28   ar
    33    10    31    1
    34    13    32    1
    35    14    33    1
    36    15    34    1
    37    16    35    1
    38    18    36    1
    39    18    37    1
    40    18    38    1
    41    19    39    1
    42    20    40    1
    43    21    41    1
    44    22    42    1
    45    23    43    1
    46    24    44    1
    47    28    45    1
    48    29    46    1
    49    29    47    1
    50    29    48    1
    51    30    49    1
    52    30    50    1
    53    30    51    1
@<TRIPOS>MOLECULE
177236
 51 53 0 0 0
SMALL
GASTEIGER

@<TRIPOS>ATOM
      1 O          -2.2497    0.7266   -1.9026 O.3     1  LIG1       -0.3632
      2 O           0.5958    0.1410    0.5453 O.3     1  LIG1       -0.4494
      3 O           1.1836    2.7096    0.0177 O.co2   1  LIG1       -0.5459
      4 O          -0.7098    3.0032   -1.1834 O.co2   1  LIG1       -0.5459
      5 O           4.7324   -0.1563    2.6448 O.3     1  LIG1       -0.4794
      6 O           4.3161   -0.9645   -1.9815 O.3     1  LIG1       -0.4794
      7 N           2.6334    0.0376    1.5878 N.ar    1  LIG1       -0.1594
      8 N           2.4818   -0.3461   -0.7587 N.ar    1  LIG1       -0.1594
      9 C          -1.5403    0.2299   -0.7254 C.3     1  LIG1        0.1609
     10 C          -0.0551    0.7431   -0.6161 C.3     1  LIG1        0.1791
     11 C          -2.3498    0.6848    0.5271 C.ar    1  LIG1       -0.0075
     12 C          -1.7200   -1.3233   -0.8840 C.ar    1  LIG1       -0.0075
     13 C          -2.1912    0.0430    1.7714 C.ar    1  LIG1       -0.0554
     14 C          -3.0164   -1.8362   -1.1278 C.ar    1  LIG1       -0.0554
     15 C          -3.2641    1.7505    0.4573 C.ar    1  LIG1       -0.0554
     16 C          -0.6712   -2.2522   -0.8206 C.ar    1  LIG1       -0.0554
     17 C           0.1322    2.2943   -0.5608 C.2     1  LIG1        0.0856
     18 C          -1.5497    0.6746   -3.1357 C.3     1  LIG1        0.0382
     19 C          -2.9333    0.4344    2.8887 C.ar    1  LIG1       -0.0614
     20 C          -3.2488   -3.2033   -1.2942 C.ar    1  LIG1       -0.0614
     21 C          -4.0110    2.1387    1.5731 C.ar    1  LIG1       -0.0614
     22 C          -0.9048   -3.6248   -0.9689 C.ar    1  LIG1       -0.0614
     23 C          -3.8480    1.4784    2.7875 C.ar    1  LIG1       -0.0617
     24 C          -2.1907   -4.1000   -1.2080 C.ar    1  LIG1       -0.0617
     25 C           1.9652    0.0265    0.4252 C.ar    1  LIG1        0.3249
     26 C           3.9498   -0.1912    1.5030 C.ar    1  LIG1        0.2240
     27 C           3.8006   -0.5674   -0.7715 C.ar    1  LIG1        0.2240
     28 C           4.6005   -0.5149    0.3412 C.ar    1  LIG1        0.0617
     29 C           4.0236    0.3537    3.7713 C.3     1  LIG1        0.0804
     30 C           5.2236    0.0135   -2.4818 C.3     1  LIG1        0.0804
     31 H           0.4576    0.4303   -1.5336 H       1  LIG1        0.0834
     32 H          -1.4751   -0.7691    1.8778 H       1  LIG1        0.0621
     33 H          -3.8561   -1.1454   -1.2004 H       1  LIG1        0.0621
     34 H          -3.3788    2.3023   -0.4751 H       1  LIG1        0.0621
     35 H           0.3529   -1.9395   -0.6581 H       1  LIG1        0.0621
     36 H          -2.2641    0.8985   -3.9332 H       1  LIG1        0.0524
     37 H          -1.1330   -0.3181   -3.3266 H       1  LIG1        0.0524
     38 H          -0.7607    1.4277   -3.1853 H       1  LIG1        0.0524
     39 H          -2.7832   -0.0719    3.8376 H       1  LIG1        0.0618
     40 H          -4.2557   -3.5582   -1.4915 H       1  LIG1        0.0618
     41 H          -4.7041    2.9701    1.4882 H       1  LIG1        0.0618
     42 H          -0.0705   -4.3175   -0.8998 H       1  LIG1        0.0618
     43 H          -4.4194    1.7895    3.6570 H       1  LIG1        0.0618
     44 H          -2.3644   -5.1643   -1.3306 H       1  LIG1        0.0618
     45 H           5.6561   -0.7308    0.3169 H       1  LIG1        0.0724
     46 H           4.7284    0.4109    4.6069 H       1  LIG1        0.0660
     47 H           3.2129   -0.3214    4.0667 H       1  LIG1        0.0660
     48 H           3.6488    1.3659    3.5838 H       1  LIG1        0.0660
     49 H           5.3220   -0.1406   -3.5607 H       1  LIG1        0.0660
     50 H           6.2131   -0.1275   -2.0337 H       1  LIG1        0.0660
     51 H           4.8714    1.0381   -2.3164 H       1  LIG1        0.0660
@<TRIPOS>BOND
     1     1     9    1
     2     1    18    1
     3     2    10    1
     4     2    25    1
     5     3    17   ar
     6     4    17   ar
     7     5    26    1
     8     5    29    1
     9     6    27    1
    10     6    30    1
    11     7    25   ar
    12     7    26   ar
    13     8    25   ar
    14     8    27   ar
    15     9    10    1
    16     9    11    1
    17     9    12    1
    18    10    17    1
    19    11    13   ar
    20    11    15   ar
    21    12    14   ar
    22    12    16   ar
    23    13    19   ar
    24    14    20   ar
    25    15    21   ar
    26    16    22   ar
    27    19    23   ar
    28    20    24   ar
    29    21    23   ar
    30    22    24   ar
    31    26    28   ar
    32    27    28   ar
    33    10    31    1
    34    13    32    1
    35    14    33    1
    36    15    34    1
    37    16    35    1
    38    18    36    1
    39    18    37    1
    40    18    38    1
    41    19    39    1
    42    20    40    1
    43    21    41    1
    44    22    42    1
    45    23    43    1
    46    24    44    1
    47    28    45    1
    48    29    46    1
    49    29    47    1
    50    29    48    1
    51    30    49    1
    52    30    50    1
    53    30    51    1
@<TRIPOS>MOLECULE
177236
 51 53 0 0 0
SMALL
GASTEIGER

@<TRIPOS>ATOM
      1 O          -2.3559    0.6988   -1.8174 O.3     1  LIG1       -0.3632
      2 O           0.5892    0.0916    0.4883 O.3     1  LIG1       -0.4494
      3 O           1.1505    2.6969    0.0707 O.co2   1  LIG1       -0.5459
      4 O          -0.7538    3.0214   -1.1079 O.co2   1  LIG1       -0.5459
      5 O           4.7249   -0.1881    2.5673 O.3     1  LIG1       -0.4794
      6 O           4.3009   -0.9533   -2.0698 O.3     1  LIG1       -0.4794
      7 N           2.6242   -0.0059    1.5161 N.ar    1  LIG1       -0.1594
      8 N           2.4656   -0.3528   -0.8377 N.ar    1  LIG1       -0.1594
      9 C          -1.5718    0.2312   -0.6820 C.3     1  LIG1        0.1609
     10 C          -0.0891    0.7532   -0.6240 C.3     1  LIG1        0.1791
     11 C          -2.3248    0.6885    0.6079 C.ar    1  LIG1       -0.0075
     12 C          -1.7034   -1.3263   -0.8415 C.ar    1  LIG1       -0.0075
     13 C          -2.0989    0.0637    1.8506 C.ar    1  LIG1       -0.0554
     14 C          -0.6372   -2.1546   -1.2311 C.ar    1  LIG1       -0.0554
     15 C          -3.2535    1.7448    0.5713 C.ar    1  LIG1       -0.0554
     16 C          -2.9648   -1.9417   -0.6741 C.ar    1  LIG1       -0.0554
     17 C           0.0955    2.2981   -0.5114 C.2     1  LIG1        0.0856
     18 C          -1.7060    0.7331   -3.0766 C.3     1  LIG1        0.0382
     19 C          -2.7916    0.4602    2.9979 C.ar    1  LIG1       -0.0614
     20 C          -0.8087   -3.5330   -1.3993 C.ar    1  LIG1       -0.0614
     21 C          -3.9501    2.1388    1.7176 C.ar    1  LIG1       -0.0614
     22 C          -3.1365   -3.3187   -0.8368 C.ar    1  LIG1       -0.0614
     23 C          -3.7229    1.4929    2.9290 C.ar    1  LIG1       -0.0617
     24 C          -2.0553   -4.1159   -1.1960 C.ar    1  LIG1       -0.0617
     25 C           1.9536   -0.0077    0.3543 C.ar    1  LIG1        0.3249
     26 C           3.9422   -0.2227    1.4255 C.ar    1  LIG1        0.2240
     27 C           3.7867   -0.5715   -0.8533 C.ar    1  LIG1        0.2240
     28 C           4.5883   -0.5303    0.2594 C.ar    1  LIG1        0.0617
     29 C           4.0162    0.3258    3.6923 C.3     1  LIG1        0.0804
     30 C           5.2151    0.0254   -2.5541 C.3     1  LIG1        0.0804
     31 H           0.3995    0.4906   -1.5704 H       1  LIG1        0.0834
     32 H          -1.3703   -0.7401    1.9308 H       1  LIG1        0.0621
     33 H           0.3488   -1.7462   -1.4274 H       1  LIG1        0.0621
     34 H          -3.4176    2.2864   -0.3604 H       1  LIG1        0.0621
     35 H          -3.8295   -1.3312   -0.4166 H       1  LIG1        0.0621
     36 H          -2.4597    0.9709   -3.8329 H       1  LIG1        0.0524
     37 H          -1.2684   -0.2343   -3.3347 H       1  LIG1        0.0524
     38 H          -0.9443    1.5132   -3.1212 H       1  LIG1        0.0524
     39 H          -2.5907   -0.0336    3.9439 H       1  LIG1        0.0618
     40 H           0.0396   -4.1437   -1.6965 H       1  LIG1        0.0618
     41 H          -4.6529    2.9627    1.6566 H       1  LIG1        0.0618
     42 H          -4.1178   -3.7595   -0.6882 H       1  LIG1        0.0618
     43 H          -4.2543    1.8080    3.8208 H       1  LIG1        0.0618
     44 H          -2.1848   -5.1856   -1.3276 H       1  LIG1        0.0618
     45 H           5.6453   -0.7419    0.2301 H       1  LIG1        0.0724
     46 H           4.7222    0.3917    4.5262 H       1  LIG1        0.0660
     47 H           3.2094   -0.3511    3.9939 H       1  LIG1        0.0660
     48 H           3.6353    1.3355    3.5002 H       1  LIG1        0.0660
     49 H           5.3294   -0.1248   -3.6319 H       1  LIG1        0.0660
     50 H           6.1999   -0.1145   -2.0928 H       1  LIG1        0.0660
     51 H           4.8601    1.0502   -2.3898 H       1  LIG1        0.0660
@<TRIPOS>BOND
     1     1     9    1
     2     1    18    1
     3     2    10    1
     4     2    25    1
     5     3    17   ar
     6     4    17   ar
     7     5    26    1
     8     5    29    1
     9     6    27    1
    10     6    30    1
    11     7    25   ar
    12     7    26   ar
    13     8    25   ar
    14     8    27   ar
    15     9    10    1
    16     9    11    1
    17     9    12    1
    18    10    17    1
    19    11    13   ar
    20    11    15   ar
    21    12    14   ar
    22    12    16   ar
    23    13    19   ar
    24    14    20   ar
    25    15    21   ar
    26    16    22   ar
    27    19    23   ar
    28    20    24   ar
    29    21    23   ar
    30    22    24   ar
    31    26    28   ar
    32    27    28   ar
    33    10    31    1
    34    13    32    1
    35    14    33    1
    36    15    34    1
    37    16    35    1
    38    18    36    1
    39    18    37    1
    40    18    38    1
    41    19    39    1
    42    20    40    1
    43    21    41    1
    44    22    42    1
    45    23    43    1
    46    24    44    1
    47    28    45    1
    48    29    46    1
    49    29    47    1
    50    29    48    1
    51    30    49    1
    52    30    50    1
    53    30    51    1
@<TRIPOS>MOLECULE
177236
 51 53 0 0 0
SMALL
GASTEIGER

@<TRIPOS>ATOM
      1 O          -2.2638    0.8332   -1.7947 O.3     1  LIG1       -0.3632
      2 O           0.6046    0.1267    0.6002 O.3     1  LIG1       -0.4494
      3 O           0.4089    2.7665    0.6713 O.co2   1  LIG1       -0.5459
      4 O          -0.0931    2.9123   -1.5345 O.co2   1  LIG1       -0.5459
      5 O           4.7761   -0.2400    2.4788 O.3     1  LIG1       -0.4794
      6 O           4.2567   -0.6861   -2.2107 O.3     1  LIG1       -0.4794
      7 N           2.7216   -0.0123    1.5139 N.ar    1  LIG1       -0.1594
      8 N           2.4160   -0.2050   -0.8312 N.ar    1  LIG1       -0.1594
      9 C          -1.5715    0.2370   -0.6480 C.3     1  LIG1        0.1609
     10 C          -0.0875    0.7338   -0.5332 C.3     1  LIG1        0.1791
     11 C          -2.3858    0.6748    0.5999 C.ar    1  LIG1       -0.0075
     12 C          -1.7472   -1.3125   -0.8735 C.ar    1  LIG1       -0.0075
     13 C          -3.0493    1.9164    0.6211 C.ar    1  LIG1       -0.0554
     14 C          -2.9670   -1.8022   -1.3966 C.ar    1  LIG1       -0.0554
     15 C          -2.4573   -0.1192    1.7599 C.ar    1  LIG1       -0.0554
     16 C          -0.7653   -2.2694   -0.5672 C.ar    1  LIG1       -0.0554
     17 C           0.0589    2.2818   -0.4438 C.2     1  LIG1        0.0856
     18 C          -1.6438    0.7065   -3.0680 C.3     1  LIG1        0.0382
     19 C          -3.7758    2.3330    1.7396 C.ar    1  LIG1       -0.0614
     20 C          -3.1717   -3.1634   -1.6421 C.ar    1  LIG1       -0.0614
     21 C          -3.1916    0.2931    2.8761 C.ar    1  LIG1       -0.0614
     22 C          -0.9783   -3.6360   -0.7865 C.ar    1  LIG1       -0.0614
     23 C          -3.8533    1.5177    2.8646 C.ar    1  LIG1       -0.0617
     24 C          -2.1754   -4.0821   -1.3344 C.ar    1  LIG1       -0.0617
     25 C           1.9721    0.0532    0.4063 C.ar    1  LIG1        0.3249
     26 C           4.0370   -0.1966    1.3220 C.ar    1  LIG1        0.2240
     27 C           3.7279   -0.4149   -0.9621 C.ar    1  LIG1        0.2240
     28 C           4.6030   -0.4189    0.0897 C.ar    1  LIG1        0.0617
     29 C           5.9806    0.5146    2.3991 C.3     1  LIG1        0.0804
     30 C           3.2666   -0.6652   -3.2389 C.3     1  LIG1        0.0804
     31 H           0.3956    0.4358   -1.4704 H       1  LIG1        0.0834
     32 H          -2.9732    2.5854   -0.2359 H       1  LIG1        0.0621
     33 H          -3.7665   -1.1012   -1.6343 H       1  LIG1        0.0621
     34 H          -1.9249   -1.0653    1.8124 H       1  LIG1        0.0621
     35 H           0.1864   -1.9896   -0.1339 H       1  LIG1        0.0621
     36 H          -2.3425    1.0967   -3.8140 H       1  LIG1        0.0524
     37 H          -1.4348   -0.3360   -3.3215 H       1  LIG1        0.0524
     38 H          -0.7267    1.2883   -3.1512 H       1  LIG1        0.0524
     39 H          -4.2563    3.3065    1.7316 H       1  LIG1        0.0618
     40 H          -4.1112   -3.4977   -2.0718 H       1  LIG1        0.0618
     41 H          -3.2250   -0.3367    3.7597 H       1  LIG1        0.0618
     42 H          -0.1991   -4.3461   -0.5224 H       1  LIG1        0.0618
     43 H          -4.4048    1.8486    3.7385 H       1  LIG1        0.0618
     44 H          -2.3318   -5.1413   -1.5136 H       1  LIG1        0.0618
     45 H           5.6518   -0.6185   -0.0579 H       1  LIG1        0.0724
     46 H           6.3197    0.7161    3.4197 H       1  LIG1        0.0660
     47 H           5.8367    1.4772    1.8952 H       1  LIG1        0.0660
     48 H           6.7631   -0.0676    1.9010 H       1  LIG1        0.0660
     49 H           3.7687   -0.8765   -4.1879 H       1  LIG1        0.0660
     50 H           2.7967    0.3211   -3.3224 H       1  LIG1        0.0660
     51 H           2.5155   -1.4478   -3.0810 H       1  LIG1        0.0660
@<TRIPOS>BOND
     1     1     9    1
     2     1    18    1
     3     2    10    1
     4     2    25    1
     5     3    17   ar
     6     4    17   ar
     7     5    26    1
     8     5    29    1
     9     6    27    1
    10     6    30    1
    11     7    25   ar
    12     7    26   ar
    13     8    25   ar
    14     8    27   ar
    15     9    10    1
    16     9    11    1
    17     9    12    1
    18    10    17    1
    19    11    13   ar
    20    11    15   ar
    21    12    14   ar
    22    12    16   ar
    23    13    19   ar
    24    14    20   ar
    25    15    21   ar
    26    16    22   ar
    27    19    23   ar
    28    20    24   ar
    29    21    23   ar
    30    22    24   ar
    31    26    28   ar
    32    27    28   ar
    33    10    31    1
    34    13    32    1
    35    14    33    1
    36    15    34    1
    37    16    35    1
    38    18    36    1
    39    18    37    1
    40    18    38    1
    41    19    39    1
    42    20    40    1
    43    21    41    1
    44    22    42    1
    45    23    43    1
    46    24    44    1
    47    28    45    1
    48    29    46    1
    49    29    47    1
    50    29    48    1
    51    30    49    1
    52    30    50    1
    53    30    51    1
@<TRIPOS>MOLECULE
177236
 51 53 0 0 0
SMALL
GASTEIGER

@<TRIPOS>ATOM
      1 O          -2.2272    0.8355   -1.8012 O.3     1  LIG1       -0.3632
      2 O           0.6582    0.1147    0.5661 O.3     1  LIG1       -0.4494
      3 O           0.0085    2.8061    0.5786 O.co2   1  LIG1       -0.5459
      4 O           0.4811    2.7497   -1.6443 O.co2   1  LIG1       -0.5459
      5 O           4.8201   -0.3555    2.4485 O.3     1  LIG1       -0.4794
      6 O           4.3239   -0.7059   -2.2348 O.3     1  LIG1       -0.4794
      7 N           2.7628   -0.0465    1.4863 N.ar    1  LIG1       -0.1594
      8 N           2.4753   -0.2225   -0.8635 N.ar    1  LIG1       -0.1594
      9 C          -1.5501    0.2504   -0.6389 C.3     1  LIG1        0.1609
     10 C          -0.0466    0.6910   -0.5716 C.3     1  LIG1        0.1791
     11 C          -2.3580    0.6955    0.6126 C.ar    1  LIG1       -0.0075
     12 C          -1.7757   -1.2950   -0.8257 C.ar    1  LIG1       -0.0075
     13 C          -2.1287    0.1054    1.8702 C.ar    1  LIG1       -0.0554
     14 C          -3.0673   -1.7642   -1.1586 C.ar    1  LIG1       -0.0554
     15 C          -3.3601    1.6811    0.5307 C.ar    1  LIG1       -0.0554
     16 C          -0.7640   -2.2592   -0.6893 C.ar    1  LIG1       -0.0554
     17 C           0.1316    2.2299   -0.5398 C.2     1  LIG1        0.0856
     18 C          -1.6098    0.6629   -3.0687 C.3     1  LIG1        0.0382
     19 C          -2.8776    0.4748    2.9914 C.ar    1  LIG1       -0.0614
     20 C          -3.3273   -3.1224   -1.3567 C.ar    1  LIG1       -0.0614
     21 C          -4.1134    2.0460    1.6501 C.ar    1  LIG1       -0.0614
     22 C          -1.0262   -3.6217   -0.8716 C.ar    1  LIG1       -0.0614
     23 C          -3.8740    1.4403    2.8800 C.ar    1  LIG1       -0.0617
     24 C          -2.3048   -4.0531   -1.2097 C.ar    1  LIG1       -0.0617
     25 C           2.0223    0.0298    0.3731 C.ar    1  LIG1        0.3249
     26 C           4.0733   -0.2694    1.2976 C.ar    1  LIG1        0.2240
     27 C           3.7860   -0.4504   -0.9867 C.ar    1  LIG1        0.2240
     28 C           4.6497   -0.4952    0.0738 C.ar    1  LIG1        0.0617
     29 C           5.8291    0.6498    2.4755 C.3     1  LIG1        0.0804
     30 C           3.3643   -0.5581   -3.2810 C.3     1  LIG1        0.0804
     31 H           0.4071    0.3357   -1.5040 H       1  LIG1        0.0834
     32 H          -1.3486   -0.6424    1.9874 H       1  LIG1        0.0621
     33 H          -3.8808   -1.0486   -1.2747 H       1  LIG1        0.0621
     34 H          -3.5496    2.1894   -0.4120 H       1  LIG1        0.0621
     35 H           0.2524   -1.9828   -0.4356 H       1  LIG1        0.0621
     36 H          -2.3479    0.9234   -3.8331 H       1  LIG1        0.0524
     37 H          -1.2970   -0.3696   -3.2445 H       1  LIG1        0.0524
     38 H          -0.7626    1.3356   -3.1993 H       1  LIG1        0.0524
     39 H          -2.6654    0.0159    3.9520 H       1  LIG1        0.0618
     40 H          -4.3287   -3.4459   -1.6230 H       1  LIG1        0.0618
     41 H          -4.8707    2.8176    1.5576 H       1  LIG1        0.0618
     42 H          -0.2218   -4.3414   -0.7463 H       1  LIG1        0.0618
     43 H          -4.4456    1.7368    3.7532 H       1  LIG1        0.0618
     44 H          -2.5021   -5.1103   -1.3555 H       1  LIG1        0.0618
     45 H           5.6972   -0.7167   -0.0537 H       1  LIG1        0.0724
     46 H           6.1464    0.7794    3.5148 H       1  LIG1        0.0660
     47 H           5.4670    1.6168    2.1083 H       1  LIG1        0.0660
     48 H           6.7026    0.3257    1.8994 H       1  LIG1        0.0660
     49 H           3.8769   -0.7456   -4.2296 H       1  LIG1        0.0660
     50 H           2.9616    0.4603   -3.3146 H       1  LIG1        0.0660
     51 H           2.5610   -1.2979   -3.1881 H       1  LIG1        0.0660
@<TRIPOS>BOND
     1     1     9    1
     2     1    18    1
     3     2    10    1
     4     2    25    1
     5     3    17   ar
     6     4    17   ar
     7     5    26    1
     8     5    29    1
     9     6    27    1
    10     6    30    1
    11     7    25   ar
    12     7    26   ar
    13     8    25   ar
    14     8    27   ar
    15     9    10    1
    16     9    11    1
    17     9    12    1
    18    10    17    1
    19    11    13   ar
    20    11    15   ar
    21    12    14   ar
    22    12    16   ar
    23    13    19   ar
    24    14    20   ar
    25    15    21   ar
    26    16    22   ar
    27    19    23   ar
    28    20    24   ar
    29    21    23   ar
    30    22    24   ar
    31    26    28   ar
    32    27    28   ar
    33    10    31    1
    34    13    32    1
    35    14    33    1
    36    15    34    1
    37    16    35    1
    38    18    36    1
    39    18    37    1
    40    18    38    1
    41    19    39    1
    42    20    40    1
    43    21    41    1
    44    22    42    1
    45    23    43    1
    46    24    44    1
    47    28    45    1
    48    29    46    1
    49    29    47    1
    50    29    48    1
    51    30    49    1
    52    30    50    1
    53    30    51    1
@<TRIPOS>MOLECULE
177236
 51 53 0 0 0
SMALL
GASTEIGER

@<TRIPOS>ATOM
      1 O          -2.3242    0.7741   -1.8368 O.3     1  LIG1       -0.3632
      2 O           0.5783   -0.0213    0.4596 O.3     1  LIG1       -0.4494
      3 O           0.5539    2.6094    0.7463 O.co2   1  LIG1       -0.5459
      4 O          -0.3208    2.9908   -1.3146 O.co2   1  LIG1       -0.5459
      5 O           4.3643    0.0259   -2.1663 O.3     1  LIG1       -0.4794
      6 O           4.6229   -1.1042    2.4406 O.3     1  LIG1       -0.4794
      7 N           2.5258    0.0702   -0.8489 N.ar    1  LIG1       -0.1594
      8 N           2.5726   -0.4806    1.4623 N.ar    1  LIG1       -0.1594
      9 C          -1.5896    0.2344   -0.6981 C.3     1  LIG1        0.1609
     10 C          -0.0997    0.7175   -0.5978 C.3     1  LIG1        0.1791
     11 C          -2.3692    0.6753    0.5781 C.ar    1  LIG1       -0.0075
     12 C          -1.7566   -1.3139   -0.9002 C.ar    1  LIG1       -0.0075
     13 C          -2.1795    0.0212    1.8109 C.ar    1  LIG1       -0.0554
     14 C          -0.6850   -2.1801   -1.1799 C.ar    1  LIG1       -0.0554
     15 C          -3.2782    1.7489    0.5424 C.ar    1  LIG1       -0.0554
     16 C          -3.0493   -1.8819   -0.8636 C.ar    1  LIG1       -0.0554
     17 C           0.0313    2.2463   -0.3508 C.2     1  LIG1        0.0856
     18 C          -1.6802    0.7277   -3.0998 C.3     1  LIG1        0.0382
     19 C          -2.8910    0.4056    2.9504 C.ar    1  LIG1       -0.0614
     20 C          -0.8868   -3.5524   -1.3621 C.ar    1  LIG1       -0.0614
     21 C          -3.9933    2.1296    1.6805 C.ar    1  LIG1       -0.0614
     22 C          -3.2528   -3.2518   -1.0507 C.ar    1  LIG1       -0.0614
     23 C          -3.8033    1.4555    2.8829 C.ar    1  LIG1       -0.0617
     24 C          -2.1691   -4.0894   -1.2922 C.ar    1  LIG1       -0.0617
     25 C           1.9492   -0.0564    0.3554 C.ar    1  LIG1        0.3249
     26 C           3.8515   -0.1120   -0.9040 C.ar    1  LIG1        0.2240
     27 C           3.8919   -0.6645    1.3492 C.ar    1  LIG1        0.2240
     28 C           4.5974   -0.4904    0.1850 C.ar    1  LIG1        0.0617
     29 C           5.7116    0.4688   -2.2296 C.3     1  LIG1        0.0804
     30 C           3.8151   -1.2855    3.6016 C.3     1  LIG1        0.0804
     31 H           0.3831    0.5125   -1.5601 H       1  LIG1        0.0834
     32 H          -1.4589   -0.7902    1.8912 H       1  LIG1        0.0621
     33 H           0.3310   -1.8071   -1.2713 H       1  LIG1        0.0621
     34 H          -3.4160    2.3119   -0.3795 H       1  LIG1        0.0621
     35 H          -3.9114   -1.2391   -0.6905 H       1  LIG1        0.0621
     36 H          -2.4179    1.0073   -3.8578 H       1  LIG1        0.0524
     37 H          -1.3207   -0.2757   -3.3406 H       1  LIG1        0.0524
     38 H          -0.8605    1.4442   -3.1670 H       1  LIG1        0.0524
     39 H          -2.7145   -0.1065    3.8912 H       1  LIG1        0.0618
     40 H          -0.0346   -4.1956   -1.5624 H       1  LIG1        0.0618
     41 H          -4.6800    2.9684    1.6245 H       1  LIG1        0.0618
     42 H          -4.2594   -3.6566   -1.0078 H       1  LIG1        0.0618
     43 H          -4.3458    1.7634    3.7713 H       1  LIG1        0.0618
     44 H          -2.3217   -5.1535   -1.4343 H       1  LIG1        0.0618
     45 H           5.6568   -0.6832    0.1501 H       1  LIG1        0.0724
     46 H           5.9062    0.8072   -3.2523 H       1  LIG1        0.0660
     47 H           6.3980   -0.3589   -2.0207 H       1  LIG1        0.0660
     48 H           5.9007    1.3121   -1.5564 H       1  LIG1        0.0660
     49 H           4.4677   -1.6353    4.4069 H       1  LIG1        0.0660
     50 H           3.0520   -2.0548    3.4377 H       1  LIG1        0.0660
     51 H           3.3636   -0.3413    3.9239 H       1  LIG1        0.0660
@<TRIPOS>BOND
     1     1     9    1
     2     1    18    1
     3     2    10    1
     4     2    25    1
     5     3    17   ar
     6     4    17   ar
     7     5    26    1
     8     5    29    1
     9     6    27    1
    10     6    30    1
    11     7    25   ar
    12     7    26   ar
    13     8    25   ar
    14     8    27   ar
    15     9    10    1
    16     9    11    1
    17     9    12    1
    18    10    17    1
    19    11    13   ar
    20    11    15   ar
    21    12    14   ar
    22    12    16   ar
    23    13    19   ar
    24    14    20   ar
    25    15    21   ar
    26    16    22   ar
    27    19    23   ar
    28    20    24   ar
    29    21    23   ar
    30    22    24   ar
    31    26    28   ar
    32    27    28   ar
    33    10    31    1
    34    13    32    1
    35    14    33    1
    36    15    34    1
    37    16    35    1
    38    18    36    1
    39    18    37    1
    40    18    38    1
    41    19    39    1
    42    20    40    1
    43    21    41    1
    44    22    42    1
    45    23    43    1
    46    24    44    1
    47    28    45    1
    48    29    46    1
    49    29    47    1
    50    29    48    1
    51    30    49    1
    52    30    50    1
    53    30    51    1
@<TRIPOS>MOLECULE
177236
 51 53 0 0 0
SMALL
GASTEIGER

@<TRIPOS>ATOM
      1 O          -2.3271    0.8144   -1.8289 O.3     1  LIG1       -0.3632
      2 O           0.5364    0.2075    0.5961 O.3     1  LIG1       -0.4494
      3 O           1.3520    2.6609   -0.4198 O.co2   1  LIG1       -0.5459
      4 O          -0.8152    3.0734   -0.9097 O.co2   1  LIG1       -0.5459
      5 O           4.2611   -0.8678   -2.0444 O.3     1  LIG1       -0.4794
      6 O           4.7548   -0.1156    2.5463 O.3     1  LIG1       -0.4794
      7 N           2.3699   -0.3444   -0.7521 N.ar    1  LIG1       -0.1594
      8 N           2.6092    0.0624    1.5804 N.ar    1  LIG1       -0.1594
      9 C          -1.6045    0.2619   -0.6832 C.3     1  LIG1        0.1609
     10 C          -0.1179    0.7706   -0.5863 C.3     1  LIG1        0.1791
     11 C          -2.4023    0.6638    0.5918 C.ar    1  LIG1       -0.0075
     12 C          -1.7708   -1.2890   -0.9090 C.ar    1  LIG1       -0.0075
     13 C          -3.1979    1.8228    0.6122 C.ar    1  LIG1       -0.0554
     14 C          -3.0285   -1.7894   -1.3196 C.ar    1  LIG1       -0.0554
     15 C          -2.3433   -0.1014    1.7736 C.ar    1  LIG1       -0.0554
     16 C          -0.7470   -2.2303   -0.7162 C.ar    1  LIG1       -0.0554
     17 C           0.1450    2.3114   -0.6096 C.2     1  LIG1        0.0856
     18 C          -1.6381    0.8329   -3.0691 C.3     1  LIG1        0.0382
     19 C          -3.9186    2.1924    1.7512 C.ar    1  LIG1       -0.0614
     20 C          -3.2415   -3.1523   -1.5448 C.ar    1  LIG1       -0.0614
     21 C          -3.0709    0.2618    2.9111 C.ar    1  LIG1       -0.0614
     22 C          -0.9645   -3.5983   -0.9211 C.ar    1  LIG1       -0.0614
     23 C          -3.8604    1.4075    2.8988 C.ar    1  LIG1       -0.0617
     24 C          -2.2074   -4.0595   -1.3429 C.ar    1  LIG1       -0.0617
     25 C           1.8991    0.0440    0.4445 C.ar    1  LIG1        0.3249
     26 C           3.6905   -0.5314   -0.8299 C.ar    1  LIG1        0.2240
     27 C           3.9265   -0.1545    1.4374 C.ar    1  LIG1        0.2240
     28 C           4.5351   -0.4562    0.2451 C.ar    1  LIG1        0.0617
     29 C           3.3556   -0.6904   -3.1318 C.3     1  LIG1        0.0804
     30 C           4.0763    0.3178    3.7209 C.3     1  LIG1        0.0804
     31 H           0.3742    0.4054   -1.4965 H       1  LIG1        0.0834
     32 H          -3.2316    2.4683   -0.2653 H       1  LIG1        0.0621
     33 H          -3.8536   -1.0969   -1.4744 H       1  LIG1        0.0621
     34 H          -1.7173   -0.9899    1.8185 H       1  LIG1        0.0621
     35 H           0.2408   -1.9346   -0.3913 H       1  LIG1        0.0621
     36 H          -2.3624    1.0875   -3.8486 H       1  LIG1        0.0524
     37 H          -1.2108   -0.1440   -3.3129 H       1  LIG1        0.0524
     38 H          -0.8592    1.5980   -3.0867 H       1  LIG1        0.0524
     39 H          -4.5060    3.1058    1.7361 H       1  LIG1        0.0618
     40 H          -4.2172   -3.4979   -1.8760 H       1  LIG1        0.0618
     41 H          -3.0057   -0.3464    3.8074 H       1  LIG1        0.0618
     42 H          -0.1527   -4.2987   -0.7488 H       1  LIG1        0.0618
     43 H          -4.4135    1.7003    3.7853 H       1  LIG1        0.0618
     44 H          -2.3693   -5.1201   -1.5069 H       1  LIG1        0.0618
     45 H           5.5962   -0.6243    0.1623 H       1  LIG1        0.0724
     46 H           3.9041   -0.8897   -4.0585 H       1  LIG1        0.0660
     47 H           2.9830    0.3394   -3.1820 H       1  LIG1        0.0660
     48 H           2.5274   -1.4067   -3.0771 H       1  LIG1        0.0660
     49 H           4.8132    0.3687    4.5291 H       1  LIG1        0.0660
     50 H           3.3058   -0.4012    4.0205 H       1  LIG1        0.0660
     51 H           3.6539    1.3213    3.5938 H       1  LIG1        0.0660
@<TRIPOS>BOND
     1     1     9    1
     2     1    18    1
     3     2    10    1
     4     2    25    1
     5     3    17   ar
     6     4    17   ar
     7     5    26    1
     8     5    29    1
     9     6    27    1
    10     6    30    1
    11     7    25   ar
    12     7    26   ar
    13     8    25   ar
    14     8    27   ar
    15     9    10    1
    16     9    11    1
    17     9    12    1
    18    10    17    1
    19    11    13   ar
    20    11    15   ar
    21    12    14   ar
    22    12    16   ar
    23    13    19   ar
    24    14    20   ar
    25    15    21   ar
    26    16    22   ar
    27    19    23   ar
    28    20    24   ar
    29    21    23   ar
    30    22    24   ar
    31    26    28   ar
    32    27    28   ar
    33    10    31    1
    34    13    32    1
    35    14    33    1
    36    15    34    1
    37    16    35    1
    38    18    36    1
    39    18    37    1
    40    18    38    1
    41    19    39    1
    42    20    40    1
    43    21    41    1
    44    22    42    1
    45    23    43    1
    46    24    44    1
    47    28    45    1
    48    29    46    1
    49    29    47    1
    50    29    48    1
    51    30    49    1
    52    30    50    1
    53    30    51    1
@<TRIPOS>MOLECULE
177236
 51 53 0 0 0
SMALL
GASTEIGER

@<TRIPOS>ATOM
      1 O          -2.2088    0.8325   -1.8426 O.3     1  LIG1       -0.3632
      2 O           0.6367    0.0958    0.5556 O.3     1  LIG1       -0.4494
      3 O           0.2092    2.7310    0.7266 O.co2   1  LIG1       -0.5459
      4 O           0.1156    2.8943   -1.5364 O.co2   1  LIG1       -0.5459
      5 O           4.3031   -0.8150   -2.0845 O.3     1  LIG1       -0.4794
      6 O           4.8197   -0.0763    2.5623 O.3     1  LIG1       -0.4794
      7 N           2.5116   -0.2655   -0.7930 N.ar    1  LIG1       -0.1594
      8 N           2.6994    0.0911    1.5486 N.ar    1  LIG1       -0.1594
      9 C          -1.5467    0.2449   -0.6741 C.3     1  LIG1        0.1609
     10 C          -0.0502    0.7141   -0.5671 C.3     1  LIG1        0.1791
     11 C          -2.3774    0.6806    0.5693 C.ar    1  LIG1       -0.0075
     12 C          -1.7573   -1.3029   -0.8659 C.ar    1  LIG1       -0.0075
     13 C          -2.1264    0.1275    1.8398 C.ar    1  LIG1       -0.0554
     14 C          -3.0087   -1.7751   -1.3265 C.ar    1  LIG1       -0.0554
     15 C          -3.4088    1.6338    0.4711 C.ar    1  LIG1       -0.0554
     16 C          -0.7762   -2.2715   -0.6004 C.ar    1  LIG1       -0.0554
     17 C           0.0673    2.2586   -0.4391 C.2     1  LIG1        0.0856
     18 C          -1.5647    0.6768   -3.0997 C.3     1  LIG1        0.0382
     19 C          -2.8723    0.5089    2.9592 C.ar    1  LIG1       -0.0614
     20 C          -3.2511   -3.1354   -1.5388 C.ar    1  LIG1       -0.0614
     21 C          -4.1616    2.0084    1.5884 C.ar    1  LIG1       -0.0614
     22 C          -1.0249   -3.6365   -0.7889 C.ar    1  LIG1       -0.0614
     23 C          -3.8929    1.4461    2.8326 C.ar    1  LIG1       -0.0617
     24 C          -2.2576   -4.0680   -1.2664 C.ar    1  LIG1       -0.0617
     25 C           2.0050    0.0661    0.4045 C.ar    1  LIG1        0.3249
     26 C           3.8360   -0.4486   -0.8493 C.ar    1  LIG1        0.2240
     27 C           4.0176   -0.1045    1.4331 C.ar    1  LIG1        0.2240
     28 C           4.6541   -0.3863    0.2526 C.ar    1  LIG1        0.0617
     29 C           5.4394   -0.0620   -2.4919 C.3     1  LIG1        0.0804
     30 C           4.0962    0.2925    3.7339 C.3     1  LIG1        0.0804
     31 H           0.4426    0.4247   -1.5025 H       1  LIG1        0.0834
     32 H          -1.3258   -0.5959    1.9721 H       1  LIG1        0.0621
     33 H          -3.8031   -1.0610   -1.5397 H       1  LIG1        0.0621
     34 H          -3.6215    2.1116   -0.4828 H       1  LIG1        0.0621
     35 H           0.2073   -2.0012   -0.2371 H       1  LIG1        0.0621
     36 H          -2.2780    0.9759   -3.8736 H       1  LIG1        0.0524
     37 H          -1.2774   -0.3601   -3.2928 H       1  LIG1        0.0524
     38 H          -0.6944    1.3253   -3.1979 H       1  LIG1        0.0524
     39 H          -2.6364    0.0845    3.9301 H       1  LIG1        0.0618
     40 H          -4.2164   -3.4580   -1.9165 H       1  LIG1        0.0618
     41 H          -4.9410    2.7566    1.4828 H       1  LIG1        0.0618
     42 H          -0.2432   -4.3565   -0.5622 H       1  LIG1        0.0618
     43 H          -4.4613    1.7540    3.7040 H       1  LIG1        0.0618
     44 H          -2.4408   -5.1265   -1.4230 H       1  LIG1        0.0618
     45 H           5.7139   -0.5783    0.2157 H       1  LIG1        0.0724
     46 H           5.5254   -0.1466   -3.5795 H       1  LIG1        0.0660
     47 H           6.3506   -0.4832   -2.0544 H       1  LIG1        0.0660
     48 H           5.3468    1.0007   -2.2420 H       1  LIG1        0.0660
     49 H           4.8073    0.3223    4.5653 H       1  LIG1        0.0660
     50 H           3.3328   -0.4545    3.9790 H       1  LIG1        0.0660
     51 H           3.6574    1.2914    3.6353 H       1  LIG1        0.0660
@<TRIPOS>BOND
     1     1     9    1
     2     1    18    1
     3     2    10    1
     4     2    25    1
     5     3    17   ar
     6     4    17   ar
     7     5    26    1
     8     5    29    1
     9     6    27    1
    10     6    30    1
    11     7    25   ar
    12     7    26   ar
    13     8    25   ar
    14     8    27   ar
    15     9    10    1
    16     9    11    1
    17     9    12    1
    18    10    17    1
    19    11    13   ar
    20    11    15   ar
    21    12    14   ar
    22    12    16   ar
    23    13    19   ar
    24    14    20   ar
    25    15    21   ar
    26    16    22   ar
    27    19    23   ar
    28    20    24   ar
    29    21    23   ar
    30    22    24   ar
    31    26    28   ar
    32    27    28   ar
    33    10    31    1
    34    13    32    1
    35    14    33    1
    36    15    34    1
    37    16    35    1
    38    18    36    1
    39    18    37    1
    40    18    38    1
    41    19    39    1
    42    20    40    1
    43    21    41    1
    44    22    42    1
    45    23    43    1
    46    24    44    1
    47    28    45    1
    48    29    46    1
    49    29    47    1
    50    29    48    1
    51    30    49    1
    52    30    50    1
    53    30    51    1
@<TRIPOS>MOLECULE
177236
 51 53 0 0 0
SMALL
GASTEIGER

@<TRIPOS>ATOM
      1 O          -2.2687    0.8396   -1.8056 O.3     1  LIG1       -0.3632
      2 O           0.6175    0.1399    0.5633 O.3     1  LIG1       -0.4494
      3 O          -0.1720    2.8623    0.4316 O.co2   1  LIG1       -0.5459
      4 O           0.6368    2.6716   -1.6845 O.co2   1  LIG1       -0.5459
      5 O           4.3267   -0.6496   -2.1837 O.3     1  LIG1       -0.4794
      6 O           4.7139   -0.1594    2.5404 O.3     1  LIG1       -0.4794
      7 N           2.4480   -0.2177   -0.8416 N.ar    1  LIG1       -0.1594
      8 N           2.7179    0.0291    1.5001 N.ar    1  LIG1       -0.1594
      9 C          -1.5874    0.2487   -0.6482 C.3     1  LIG1        0.1609
     10 C          -0.0820    0.6842   -0.5931 C.3     1  LIG1        0.1791
     11 C          -2.3920    0.6792    0.6106 C.ar    1  LIG1       -0.0075
     12 C          -1.8103   -1.2969   -0.8428 C.ar    1  LIG1       -0.0075
     13 C          -2.1466    0.0903    1.8660 C.ar    1  LIG1       -0.0554
     14 C          -0.8039   -2.2620   -0.6747 C.ar    1  LIG1       -0.0554
     15 C          -3.4114    1.6476    0.5380 C.ar    1  LIG1       -0.0554
     16 C          -3.0934   -1.7652   -1.2078 C.ar    1  LIG1       -0.0554
     17 C           0.1182    2.2195   -0.6151 C.2     1  LIG1        0.0856
     18 C          -1.6431    0.6926   -3.0724 C.3     1  LIG1        0.0382
     19 C          -2.8932    0.4457    2.9933 C.ar    1  LIG1       -0.0614
     20 C          -1.0621   -3.6244   -0.8639 C.ar    1  LIG1       -0.0614
     21 C          -4.1630    1.9983    1.6633 C.ar    1  LIG1       -0.0614
     22 C          -3.3487   -3.1235   -1.4120 C.ar    1  LIG1       -0.0614
     23 C          -3.9053    1.3954    2.8907 C.ar    1  LIG1       -0.0617
     24 C          -2.3311   -4.0547   -1.2376 C.ar    1  LIG1       -0.0617
     25 C           1.9827    0.0603    0.3816 C.ar    1  LIG1        0.3249
     26 C           3.7667   -0.3890   -0.9455 C.ar    1  LIG1        0.2240
     27 C           4.0380   -0.1599    1.3498 C.ar    1  LIG1        0.2240
     28 C           4.6246   -0.3742    0.1235 C.ar    1  LIG1        0.0617
     29 C           3.3826   -0.5102   -3.2455 C.3     1  LIG1        0.0804
     30 C           6.1296   -0.0980    2.4732 C.3     1  LIG1        0.0804
     31 H           0.3685    0.2905   -1.5125 H       1  LIG1        0.0834
     32 H          -1.3552   -0.6469    1.9775 H       1  LIG1        0.0621
     33 H           0.2043   -1.9855   -0.3892 H       1  LIG1        0.0621
     34 H          -3.6145    2.1554   -0.4020 H       1  LIG1        0.0621
     35 H          -3.9035   -1.0496   -1.3434 H       1  LIG1        0.0621
     36 H          -2.3896    0.9242   -3.8380 H       1  LIG1        0.0524
     37 H          -1.2870   -0.3258   -3.2485 H       1  LIG1        0.0524
     38 H          -0.8259    1.4023   -3.1981 H       1  LIG1        0.0524
     39 H          -2.6672   -0.0112    3.9517 H       1  LIG1        0.0618
     40 H          -0.2623   -4.3449   -0.7156 H       1  LIG1        0.0618
     41 H          -4.9329    2.7586    1.5770 H       1  LIG1        0.0618
     42 H          -4.3432   -3.4464   -1.7043 H       1  LIG1        0.0618
     43 H          -4.4756    1.6817    3.7682 H       1  LIG1        0.0618
     44 H          -2.5253   -5.1119   -1.3887 H       1  LIG1        0.0618
     45 H           5.6780   -0.5430   -0.0256 H       1  LIG1        0.0724
     46 H           3.9135   -0.6849   -4.1864 H       1  LIG1        0.0660
     47 H           2.9651    0.5022   -3.2806 H       1  LIG1        0.0660
     48 H           2.5891   -1.2625   -3.1702 H       1  LIG1        0.0660
     49 H           6.5093    0.0233    3.4923 H       1  LIG1        0.0660
     50 H           6.4688    0.7631    1.8874 H       1  LIG1        0.0660
     51 H           6.5429   -1.0315    2.0767 H       1  LIG1        0.0660
@<TRIPOS>BOND
     1     1     9    1
     2     1    18    1
     3     2    10    1
     4     2    25    1
     5     3    17   ar
     6     4    17   ar
     7     5    26    1
     8     5    29    1
     9     6    27    1
    10     6    30    1
    11     7    25   ar
    12     7    26   ar
    13     8    25   ar
    14     8    27   ar
    15     9    10    1
    16     9    11    1
    17     9    12    1
    18    10    17    1
    19    11    13   ar
    20    11    15   ar
    21    12    14   ar
    22    12    16   ar
    23    13    19   ar
    24    14    20   ar
    25    15    21   ar
    26    16    22   ar
    27    19    23   ar
    28    20    24   ar
    29    21    23   ar
    30    22    24   ar
    31    26    28   ar
    32    27    28   ar
    33    10    31    1
    34    13    32    1
    35    14    33    1
    36    15    34    1
    37    16    35    1
    38    18    36    1
    39    18    37    1
    40    18    38    1
    41    19    39    1
    42    20    40    1
    43    21    41    1
    44    22    42    1
    45    23    43    1
    46    24    44    1
    47    28    45    1
    48    29    46    1
    49    29    47    1
    50    29    48    1
    51    30    49    1
    52    30    50    1
    53    30    51    1
@<TRIPOS>MOLECULE
177236
 51 53 0 0 0
SMALL
GASTEIGER

@<TRIPOS>ATOM
      1 O          -2.2162    0.8595   -1.8198 O.3     1  LIG1       -0.3632
      2 O           0.6294    0.1205    0.5752 O.3     1  LIG1       -0.4494
      3 O           0.0627    2.7603    0.7169 O.co2   1  LIG1       -0.5459
      4 O           0.2520    2.8715   -1.5430 O.co2   1  LIG1       -0.5459
      5 O           4.8289   -0.0093    2.5492 O.3     1  LIG1       -0.4794
      6 O           4.2692   -0.8339   -2.0815 O.3     1  LIG1       -0.4794
      7 N           2.6985    0.1368    1.5513 N.ar    1  LIG1       -0.1594
      8 N           2.4931   -0.2703   -0.7803 N.ar    1  LIG1       -0.1594
      9 C          -1.5607    0.2517   -0.6557 C.3     1  LIG1        0.1609
     10 C          -0.0633    0.7201   -0.5525 C.3     1  LIG1        0.1791
     11 C          -2.3977    0.6714    0.5884 C.ar    1  LIG1       -0.0075
     12 C          -1.7630   -1.2968   -0.8609 C.ar    1  LIG1       -0.0075
     13 C          -2.1147    0.1536    1.8663 C.ar    1  LIG1       -0.0554
     14 C          -2.9686   -1.7721   -1.4281 C.ar    1  LIG1       -0.0554
     15 C          -3.4689    1.5821    0.4855 C.ar    1  LIG1       -0.0554
     16 C          -0.8154   -2.2670   -0.4925 C.ar    1  LIG1       -0.0554
     17 C           0.0594    2.2636   -0.4434 C.2     1  LIG1        0.0856
     18 C          -1.5739    0.7160   -3.0811 C.3     1  LIG1        0.0382
     19 C          -2.8559    0.5347    2.9888 C.ar    1  LIG1       -0.0614
     20 C          -3.1850   -3.1333   -1.6657 C.ar    1  LIG1       -0.0614
     21 C          -4.2173    1.9561    1.6062 C.ar    1  LIG1       -0.0614
     22 C          -1.0409   -3.6319   -0.7079 C.ar    1  LIG1       -0.0614
     23 C          -3.9093    1.4348    2.8586 C.ar    1  LIG1       -0.0617
     24 C          -2.2193   -4.0644   -1.3041 C.ar    1  LIG1       -0.0617
     25 C           1.9968    0.0854    0.4144 C.ar    1  LIG1        0.3249
     26 C           4.0172   -0.0570    1.4280 C.ar    1  LIG1        0.2240
     27 C           3.8166   -0.4453   -0.8473 C.ar    1  LIG1        0.2240
     28 C           4.6439   -0.3540    0.2452 C.ar    1  LIG1        0.0617
     29 C           4.1068    0.3232    3.7322 C.3     1  LIG1        0.0804
     30 C           5.4455   -0.1485   -2.4949 C.3     1  LIG1        0.0804
     31 H           0.4262    0.4118   -1.4854 H       1  LIG1        0.0834
     32 H          -1.2879   -0.5375    2.0049 H       1  LIG1        0.0621
     33 H          -3.7422   -1.0622   -1.7114 H       1  LIG1        0.0621
     34 H          -3.7137    2.0315   -0.4739 H       1  LIG1        0.0621
     35 H           0.1218   -1.9975   -0.0244 H       1  LIG1        0.0621
     36 H          -2.2742    1.0616   -3.8455 H       1  LIG1        0.0524
     37 H          -1.3249   -0.3250   -3.3009 H       1  LIG1        0.0524
     38 H          -0.6810    1.3333   -3.1619 H       1  LIG1        0.0524
     39 H          -2.5894    0.1420    3.9651 H       1  LIG1        0.0618
     40 H          -4.1106   -3.4572   -2.1330 H       1  LIG1        0.0618
     41 H          -5.0229    2.6755    1.4962 H       1  LIG1        0.0618
     42 H          -0.2844   -4.3501   -0.4059 H       1  LIG1        0.0618
     43 H          -4.4719    1.7460    3.7325 H       1  LIG1        0.0618
     44 H          -2.3828   -5.1227   -1.4837 H       1  LIG1        0.0618
     45 H           5.7050   -0.5394    0.2064 H       1  LIG1        0.0724
     46 H           4.8238    0.3587    4.5576 H       1  LIG1        0.0660
     47 H           3.3643   -0.4453    3.9715 H       1  LIG1        0.0660
     48 H           3.6424    1.3126    3.6519 H       1  LIG1        0.0660
     49 H           5.5367   -0.2636   -3.5787 H       1  LIG1        0.0660
     50 H           6.3327   -0.6033   -2.0394 H       1  LIG1        0.0660
     51 H           5.4015    0.9222   -2.2718 H       1  LIG1        0.0660
@<TRIPOS>BOND
     1     1     9    1
     2     1    18    1
     3     2    10    1
     4     2    25    1
     5     3    17   ar
     6     4    17   ar
     7     5    26    1
     8     5    29    1
     9     6    27    1
    10     6    30    1
    11     7    25   ar
    12     7    26   ar
    13     8    25   ar
    14     8    27   ar
    15     9    10    1
    16     9    11    1
    17     9    12    1
    18    10    17    1
    19    11    13   ar
    20    11    15   ar
    21    12    14   ar
    22    12    16   ar
    23    13    19   ar
    24    14    20   ar
    25    15    21   ar
    26    16    22   ar
    27    19    23   ar
    28    20    24   ar
    29    21    23   ar
    30    22    24   ar
    31    26    28   ar
    32    27    28   ar
    33    10    31    1
    34    13    32    1
    35    14    33    1
    36    15    34    1
    37    16    35    1
    38    18    36    1
    39    18    37    1
    40    18    38    1
    41    19    39    1
    42    20    40    1
    43    21    41    1
    44    22    42    1
    45    23    43    1
    46    24    44    1
    47    28    45    1
    48    29    46    1
    49    29    47    1
    50    29    48    1
    51    30    49    1
    52    30    50    1
    53    30    51    1
@<TRIPOS>MOLECULE
177236
 51 53 0 0 0
SMALL
GASTEIGER

@<TRIPOS>ATOM
      1 O          -2.2572    0.8052   -1.8505 O.3     1  LIG1       -0.3632
      2 O           0.6027    0.0264    0.5142 O.3     1  LIG1       -0.4494
      3 O           0.0922    2.7043    0.6219 O.co2   1  LIG1       -0.5459
      4 O           0.2883    2.7684   -1.6440 O.co2   1  LIG1       -0.5459
      5 O           4.6633   -1.4230    2.2377 O.3     1  LIG1       -0.4794
      6 O           4.5540    0.6854   -1.9395 O.3     1  LIG1       -0.4794
      7 N           2.6039   -0.6338    1.4025 N.ar    1  LIG1       -0.1594
      8 N           2.5604    0.4094   -0.7269 N.ar    1  LIG1       -0.1594
      9 C          -1.5829    0.2108   -0.6939 C.3     1  LIG1        0.1609
     10 C          -0.0782    0.6458   -0.6140 C.3     1  LIG1        0.1791
     11 C          -2.3885    0.6483    0.5641 C.ar    1  LIG1       -0.0075
     12 C          -1.8134   -1.3328   -0.8900 C.ar    1  LIG1       -0.0075
     13 C          -2.1629    0.0440    1.8162 C.ar    1  LIG1       -0.0554
     14 C          -0.8074   -2.3034   -0.7545 C.ar    1  LIG1       -0.0554
     15 C          -3.3841    1.6408    0.4935 C.ar    1  LIG1       -0.0554
     16 C          -3.1074   -1.7930   -1.2266 C.ar    1  LIG1       -0.0554
     17 C           0.0867    2.1866   -0.5326 C.2     1  LIG1        0.0856
     18 C          -1.6354    0.6420   -3.1173 C.3     1  LIG1        0.0382
     19 C          -2.9080    0.4058    2.9423 C.ar    1  LIG1       -0.0614
     20 C          -1.0789   -3.6641   -0.9383 C.ar    1  LIG1       -0.0614
     21 C          -4.1349    1.9975    1.6178 C.ar    1  LIG1       -0.0614
     22 C          -3.3755   -3.1491   -1.4281 C.ar    1  LIG1       -0.0614
     23 C          -3.8986    1.3782    2.8415 C.ar    1  LIG1       -0.0617
     24 C          -2.3596   -4.0864   -1.2799 C.ar    1  LIG1       -0.0617
     25 C           1.9754   -0.0002    0.4027 C.ar    1  LIG1        0.3249
     26 C           3.9308   -0.7716    1.2594 C.ar    1  LIG1        0.2240
     27 C           3.8869    0.2659   -0.8035 C.ar    1  LIG1        0.2240
     28 C           4.6406   -0.3312    0.1710 C.ar    1  LIG1        0.0617
     29 C           3.8499   -1.9091    3.3014 C.3     1  LIG1        0.0804
     30 C           3.7006    1.4053   -2.8322 C.3     1  LIG1        0.0804
     31 H           0.3950    0.2999   -1.5426 H       1  LIG1        0.0834
     32 H          -1.3885   -0.7115    1.9256 H       1  LIG1        0.0621
     33 H           0.2110   -2.0349   -0.4988 H       1  LIG1        0.0621
     34 H          -3.5721    2.1590   -0.4442 H       1  LIG1        0.0621
     35 H          -3.9160   -1.0722   -1.3426 H       1  LIG1        0.0621
     36 H          -2.3690    0.9140   -3.8821 H       1  LIG1        0.0524
     37 H          -1.3280   -0.3907   -3.3011 H       1  LIG1        0.0524
     38 H          -0.7824    1.3087   -3.2396 H       1  LIG1        0.0524
     39 H          -2.6985   -0.0645    3.8980 H       1  LIG1        0.0618
     40 H          -0.2797   -4.3897   -0.8125 H       1  LIG1        0.0618
     41 H          -4.8893    2.7736    1.5338 H       1  LIG1        0.0618
     42 H          -4.3783   -3.4653   -1.6980 H       1  LIG1        0.0618
     43 H          -4.4690    1.6682    3.7178 H       1  LIG1        0.0618
     44 H          -2.5636   -5.1422   -1.4277 H       1  LIG1        0.0618
     45 H           5.7074   -0.4578    0.0813 H       1  LIG1        0.0724
     46 H           4.5051   -2.4206    4.0131 H       1  LIG1        0.0660
     47 H           3.1197   -2.6418    2.9397 H       1  LIG1        0.0660
     48 H           3.3567   -1.0882    3.8328 H       1  LIG1        0.0660
     49 H           4.3082    1.7219   -3.6855 H       1  LIG1        0.0660
     50 H           3.2957    2.3055   -2.3575 H       1  LIG1        0.0660
     51 H           2.8996    0.7648   -3.2188 H       1  LIG1        0.0660
@<TRIPOS>BOND
     1     1     9    1
     2     1    18    1
     3     2    10    1
     4     2    25    1
     5     3    17   ar
     6     4    17   ar
     7     5    26    1
     8     5    29    1
     9     6    27    1
    10     6    30    1
    11     7    25   ar
    12     7    26   ar
    13     8    25   ar
    14     8    27   ar
    15     9    10    1
    16     9    11    1
    17     9    12    1
    18    10    17    1
    19    11    13   ar
    20    11    15   ar
    21    12    14   ar
    22    12    16   ar
    23    13    19   ar
    24    14    20   ar
    25    15    21   ar
    26    16    22   ar
    27    19    23   ar
    28    20    24   ar
    29    21    23   ar
    30    22    24   ar
    31    26    28   ar
    32    27    28   ar
    33    10    31    1
    34    13    32    1
    35    14    33    1
    36    15    34    1
    37    16    35    1
    38    18    36    1
    39    18    37    1
    40    18    38    1
    41    19    39    1
    42    20    40    1
    43    21    41    1
    44    22    42    1
    45    23    43    1
    46    24    44    1
    47    28    45    1
    48    29    46    1
    49    29    47    1
    50    29    48    1
    51    30    49    1
    52    30    50    1
    53    30    51    1
@<TRIPOS>MOLECULE
177236
 51 53 0 0 0
SMALL
GASTEIGER

@<TRIPOS>ATOM
      1 O          -2.4617    0.9911   -1.4903 O.3     1  LIG1       -0.3632
      2 O           0.3111    0.6763   -1.9210 O.3     1  LIG1       -0.4494
      3 O           1.5376   -0.7540    0.0748 O.co2   1  LIG1       -0.5459
      4 O           0.9014    0.8101    1.5904 O.co2   1  LIG1       -0.5459
      5 O           3.3281    2.1351   -5.1453 O.3     1  LIG1       -0.4794
      6 O           3.7700    3.6214   -0.7266 O.3     1  LIG1       -0.4794
      7 N           1.8044    1.3682   -3.5154 N.ar    1  LIG1       -0.1594
      8 N           2.0003    2.1879   -1.2973 N.ar    1  LIG1       -0.1594
      9 C          -1.6404    0.3376   -0.4481 C.3     1  LIG1        0.1609
     10 C          -0.1584    0.8469   -0.5460 C.3     1  LIG1        0.1791
     11 C          -2.4327    0.6674    0.8518 C.ar    1  LIG1       -0.0075
     12 C          -1.7400   -1.1886   -0.7757 C.ar    1  LIG1       -0.0075
     13 C          -3.6766    0.0454    1.1016 C.ar    1  LIG1       -0.0554
     14 C          -2.4005   -1.6588   -1.9309 C.ar    1  LIG1       -0.0554
     15 C          -2.0247    1.6523    1.7667 C.ar    1  LIG1       -0.0554
     16 C          -1.2267   -2.1571    0.1061 C.ar    1  LIG1       -0.0554
     17 C           0.8435    0.2288    0.4652 C.2     1  LIG1        0.0856
     18 C          -2.3443    2.3964   -1.6336 C.3     1  LIG1        0.0382
     19 C          -4.4486    0.3647    2.2227 C.ar    1  LIG1       -0.0614
     20 C          -2.5442   -3.0261   -2.1883 C.ar    1  LIG1       -0.0614
     21 C          -2.8005    1.9814    2.8842 C.ar    1  LIG1       -0.0614
     22 C          -1.3475   -3.5248   -0.1635 C.ar    1  LIG1       -0.0614
     23 C          -4.0098    1.3355    3.1151 C.ar    1  LIG1       -0.0617
     24 C          -2.0124   -3.9599   -1.3060 C.ar    1  LIG1       -0.0617
     25 C           1.4328    1.4147   -2.2288 C.ar    1  LIG1        0.3249
     26 C           2.8772    2.1083   -3.8359 C.ar    1  LIG1        0.2240
     27 C           3.0948    2.8612   -1.6635 C.ar    1  LIG1        0.2240
     28 C           3.5790    2.8794   -2.9435 C.ar    1  LIG1        0.0617
     29 C           2.5464    1.3168   -6.0109 C.3     1  LIG1        0.0804
     30 C           3.3912    3.2778    0.6100 C.3     1  LIG1        0.0804
     31 H          -0.1740    1.9268   -0.3473 H       1  LIG1        0.0834
     32 H          -4.0586   -0.7021    0.4087 H       1  LIG1        0.0621
     33 H          -2.8220   -0.9559   -2.6452 H       1  LIG1        0.0621
     34 H          -1.0888    2.1902    1.6346 H       1  LIG1        0.0621
     35 H          -0.7062   -1.8560    1.0143 H       1  LIG1        0.0621
     36 H          -3.1253    2.7239   -2.3261 H       1  LIG1        0.0524
     37 H          -1.3866    2.6742   -2.0797 H       1  LIG1        0.0524
     38 H          -2.4944    2.9238   -0.6894 H       1  LIG1        0.0524
     39 H          -5.3915   -0.1468    2.3897 H       1  LIG1        0.0618
     40 H          -3.0653   -3.3533   -3.0829 H       1  LIG1        0.0618
     41 H          -2.4436    2.7421    3.5726 H       1  LIG1        0.0618
     42 H          -0.9061   -4.2421    0.5220 H       1  LIG1        0.0618
     43 H          -4.6053    1.5891    3.9862 H       1  LIG1        0.0618
     44 H          -2.1043   -5.0213   -1.5113 H       1  LIG1        0.0618
     45 H           4.4475    3.4523   -3.2261 H       1  LIG1        0.0724
     46 H           2.9630    1.4075   -7.0188 H       1  LIG1        0.0660
     47 H           1.5063    1.6596   -6.0516 H       1  LIG1        0.0660
     48 H           2.6047    0.2622   -5.7204 H       1  LIG1        0.0660
     49 H           4.0262    3.8542    1.2898 H       1  LIG1        0.0660
     50 H           3.5654    2.2153    0.8131 H       1  LIG1        0.0660
     51 H           2.3513    3.5574    0.8112 H       1  LIG1        0.0660
@<TRIPOS>BOND
     1     1     9    1
     2     1    18    1
     3     2    10    1
     4     2    25    1
     5     3    17   ar
     6     4    17   ar
     7     5    26    1
     8     5    29    1
     9     6    27    1
    10     6    30    1
    11     7    25   ar
    12     7    26   ar
    13     8    25   ar
    14     8    27   ar
    15     9    10    1
    16     9    11    1
    17     9    12    1
    18    10    17    1
    19    11    13   ar
    20    11    15   ar
    21    12    14   ar
    22    12    16   ar
    23    13    19   ar
    24    14    20   ar
    25    15    21   ar
    26    16    22   ar
    27    19    23   ar
    28    20    24   ar
    29    21    23   ar
    30    22    24   ar
    31    26    28   ar
    32    27    28   ar
    33    10    31    1
    34    13    32    1
    35    14    33    1
    36    15    34    1
    37    16    35    1
    38    18    36    1
    39    18    37    1
    40    18    38    1
    41    19    39    1
    42    20    40    1
    43    21    41    1
    44    22    42    1
    45    23    43    1
    46    24    44    1
    47    28    45    1
    48    29    46    1
    49    29    47    1
    50    29    48    1
    51    30    49    1
    52    30    50    1
    53    30    51    1
@<TRIPOS>MOLECULE
177236
 51 53 0 0 0
SMALL
GASTEIGER

@<TRIPOS>ATOM
      1 O          -2.2729    0.8566   -1.8070 O.3     1  LIG1       -0.3632
      2 O           0.5850    0.1528    0.5915 O.3     1  LIG1       -0.4494
      3 O          -0.2472    2.8741    0.4355 O.co2   1  LIG1       -0.5459
      4 O           0.6844    2.6749   -1.6294 O.co2   1  LIG1       -0.5459
      5 O           4.3411   -0.7208   -2.0678 O.3     1  LIG1       -0.4794
      6 O           4.8161    0.0070    2.5288 O.3     1  LIG1       -0.4794
      7 N           2.4390   -0.2533   -0.7690 N.ar    1  LIG1       -0.1594
      8 N           2.6676    0.1388    1.5610 N.ar    1  LIG1       -0.1594
      9 C          -1.6006    0.2531   -0.6513 C.3     1  LIG1        0.1609
     10 C          -0.0973    0.6935   -0.5757 C.3     1  LIG1        0.1791
     11 C          -2.4214    0.6593    0.6058 C.ar    1  LIG1       -0.0075
     12 C          -1.8102   -1.2920   -0.8679 C.ar    1  LIG1       -0.0075
     13 C          -2.1787    0.0613    1.8576 C.ar    1  LIG1       -0.0554
     14 C          -3.0724   -1.7624   -1.2963 C.ar    1  LIG1       -0.0554
     15 C          -3.4521    1.6158    0.5355 C.ar    1  LIG1       -0.0554
     16 C          -0.8122   -2.2559   -0.6500 C.ar    1  LIG1       -0.0554
     17 C           0.1026    2.2283   -0.5911 C.2     1  LIG1        0.0856
     18 C          -1.6232    0.7494   -3.0656 C.3     1  LIG1        0.0382
     19 C          -2.9355    0.3988    2.9838 C.ar    1  LIG1       -0.0614
     20 C          -3.3135   -3.1206   -1.5177 C.ar    1  LIG1       -0.0614
     21 C          -4.2145    1.9481    1.6594 C.ar    1  LIG1       -0.0614
     22 C          -1.0569   -3.6187   -0.8554 C.ar    1  LIG1       -0.0614
     23 C          -3.9571    1.3384    2.8833 C.ar    1  LIG1       -0.0617
     24 C          -2.3039   -4.0503   -1.2949 C.ar    1  LIG1       -0.0617
     25 C           1.9527    0.0904    0.4314 C.ar    1  LIG1        0.3249
     26 C           3.7647   -0.4076   -0.8504 C.ar    1  LIG1        0.2240
     27 C           3.9888   -0.0444    1.4193 C.ar    1  LIG1        0.2240
     28 C           4.6066   -0.3220    0.2257 C.ar    1  LIG1        0.0617
     29 C           3.4197   -0.5927   -3.1508 C.3     1  LIG1        0.0804
     30 C           4.1167    0.3660    3.7171 C.3     1  LIG1        0.0804
     31 H           0.3700    0.3017   -1.4880 H       1  LIG1        0.0834
     32 H          -1.3817   -0.6697    1.9677 H       1  LIG1        0.0621
     33 H          -3.8778   -1.0492   -1.4683 H       1  LIG1        0.0621
     34 H          -3.6556    2.1297   -0.4011 H       1  LIG1        0.0621
     35 H           0.1791   -1.9795   -0.3110 H       1  LIG1        0.0621
     36 H          -2.3689    0.9504   -3.8404 H       1  LIG1        0.0524
     37 H          -1.2137   -0.2484   -3.2437 H       1  LIG1        0.0524
     38 H          -0.8419    1.5017   -3.1717 H       1  LIG1        0.0524
     39 H          -2.7112   -0.0646    3.9393 H       1  LIG1        0.0618
     40 H          -4.2911   -3.4451   -1.8610 H       1  LIG1        0.0618
     41 H          -4.9931    2.6998    1.5746 H       1  LIG1        0.0618
     42 H          -0.2641   -4.3376   -0.6682 H       1  LIG1        0.0618
     43 H          -4.5361    1.6108    3.7596 H       1  LIG1        0.0618
     44 H          -2.4875   -5.1074   -1.4590 H       1  LIG1        0.0618
     45 H           5.6707   -0.4682    0.1420 H       1  LIG1        0.0724
     46 H           3.9666   -0.7930   -4.0772 H       1  LIG1        0.0660
     47 H           3.0159    0.4238   -3.2150 H       1  LIG1        0.0660
     48 H           2.6155   -1.3332   -3.0754 H       1  LIG1        0.0660
     49 H           4.8476    0.4072    4.5308 H       1  LIG1        0.0660
     50 H           3.3701   -0.3907    3.9813 H       1  LIG1        0.0660
     51 H           3.6619    1.3585    3.6281 H       1  LIG1        0.0660
@<TRIPOS>BOND
     1     1     9    1
     2     1    18    1
     3     2    10    1
     4     2    25    1
     5     3    17   ar
     6     4    17   ar
     7     5    26    1
     8     5    29    1
     9     6    27    1
    10     6    30    1
    11     7    25   ar
    12     7    26   ar
    13     8    25   ar
    14     8    27   ar
    15     9    10    1
    16     9    11    1
    17     9    12    1
    18    10    17    1
    19    11    13   ar
    20    11    15   ar
    21    12    14   ar
    22    12    16   ar
    23    13    19   ar
    24    14    20   ar
    25    15    21   ar
    26    16    22   ar
    27    19    23   ar
    28    20    24   ar
    29    21    23   ar
    30    22    24   ar
    31    26    28   ar
    32    27    28   ar
    33    10    31    1
    34    13    32    1
    35    14    33    1
    36    15    34    1
    37    16    35    1
    38    18    36    1
    39    18    37    1
    40    18    38    1
    41    19    39    1
    42    20    40    1
    43    21    41    1
    44    22    42    1
    45    23    43    1
    46    24    44    1
    47    28    45    1
    48    29    46    1
    49    29    47    1
    50    29    48    1
    51    30    49    1
    52    30    50    1
    53    30    51    1
@<TRIPOS>MOLECULE
177236
 51 53 0 0 0
SMALL
GASTEIGER

@<TRIPOS>ATOM
      1 O          -2.2749    0.8532   -1.8097 O.3     1  LIG1       -0.3632
      2 O           0.5850    0.1388    0.5826 O.3     1  LIG1       -0.4494
      3 O          -0.2203    2.8644    0.4330 O.co2   1  LIG1       -0.5459
      4 O           0.6785    2.6659   -1.6465 O.co2   1  LIG1       -0.5459
      5 O           4.3566   -0.7093   -2.0628 O.3     1  LIG1       -0.4794
      6 O           4.8090    0.0126    2.5369 O.3     1  LIG1       -0.4794
      7 N           2.4466   -0.2541   -0.7714 N.ar    1  LIG1       -0.1594
      8 N           2.6634    0.1333    1.5610 N.ar    1  LIG1       -0.1594
      9 C          -1.5987    0.2502   -0.6569 C.3     1  LIG1        0.1609
     10 C          -0.0942    0.6852   -0.5843 C.3     1  LIG1        0.1791
     11 C          -2.4121    0.6604    0.6039 C.ar    1  LIG1       -0.0075
     12 C          -1.8148   -1.2936   -0.8729 C.ar    1  LIG1       -0.0075
     13 C          -2.1801    0.0466    1.8504 C.ar    1  LIG1       -0.0554
     14 C          -0.8073   -2.2574   -0.7014 C.ar    1  LIG1       -0.0554
     15 C          -3.4257    1.6351    0.5417 C.ar    1  LIG1       -0.0554
     16 C          -3.0921   -1.7616   -1.2560 C.ar    1  LIG1       -0.0554
     17 C           0.1111    2.2194   -0.5998 C.2     1  LIG1        0.0856
     18 C          -1.6316    0.7405   -3.0710 C.3     1  LIG1        0.0382
     19 C          -2.9338    0.3847    2.9783 C.ar    1  LIG1       -0.0614
     20 C          -1.0597   -3.6189   -0.9032 C.ar    1  LIG1       -0.0614
     21 C          -4.1850    1.9679    1.6677 C.ar    1  LIG1       -0.0614
     22 C          -3.3415   -3.1192   -1.4727 C.ar    1  LIG1       -0.0614
     23 C          -3.9401    1.3409    2.8856 C.ar    1  LIG1       -0.0617
     24 C          -2.3234   -4.0493   -1.2935 C.ar    1  LIG1       -0.0617
     25 C           1.9539    0.0832    0.4279 C.ar    1  LIG1        0.3249
     26 C           3.7738   -0.4017   -0.8472 C.ar    1  LIG1        0.2240
     27 C           3.9866   -0.0421    1.4242 C.ar    1  LIG1        0.2240
     28 C           4.6096   -0.3144    0.2326 C.ar    1  LIG1        0.0617
     29 C           3.4412   -0.5773   -3.1500 C.3     1  LIG1        0.0804
     30 C           4.1057    0.3796    3.7204 C.3     1  LIG1        0.0804
     31 H           0.3716    0.2920   -1.4971 H       1  LIG1        0.0834
     32 H          -1.3949   -0.6985    1.9533 H       1  LIG1        0.0621
     33 H           0.1976   -1.9805   -0.4040 H       1  LIG1        0.0621
     34 H          -3.6192    2.1611   -0.3902 H       1  LIG1        0.0621
     35 H          -3.9025   -1.0474   -1.3946 H       1  LIG1        0.0621
     36 H          -2.3796    0.9445   -3.8429 H       1  LIG1        0.0524
     37 H          -1.2286   -0.2600   -3.2496 H       1  LIG1        0.0524
     38 H          -0.8463    1.4878   -3.1818 H       1  LIG1        0.0524
     39 H          -2.7194   -0.0933    3.9289 H       1  LIG1        0.0618
     40 H          -0.2598   -4.3383   -0.7523 H       1  LIG1        0.0618
     41 H          -4.9512    2.7330    1.5895 H       1  LIG1        0.0618
     42 H          -4.3320   -3.4424   -1.7787 H       1  LIG1        0.0618
     43 H          -4.5165    1.6132    3.7633 H       1  LIG1        0.0618
     44 H          -2.5136   -5.1059   -1.4546 H       1  LIG1        0.0618
     45 H           5.6756   -0.4554    0.1529 H       1  LIG1        0.0724
     46 H           3.9932   -0.7726   -4.0744 H       1  LIG1        0.0660
     47 H           3.0362    0.4391   -3.2118 H       1  LIG1        0.0660
     48 H           2.6373   -1.3191   -3.0824 H       1  LIG1        0.0660
     49 H           4.8338    0.4262    4.5363 H       1  LIG1        0.0660
     50 H           3.3581   -0.3755    3.9872 H       1  LIG1        0.0660
     51 H           3.6509    1.3714    3.6233 H       1  LIG1        0.0660
@<TRIPOS>BOND
     1     1     9    1
     2     1    18    1
     3     2    10    1
     4     2    25    1
     5     3    17   ar
     6     4    17   ar
     7     5    26    1
     8     5    29    1
     9     6    27    1
    10     6    30    1
    11     7    25   ar
    12     7    26   ar
    13     8    25   ar
    14     8    27   ar
    15     9    10    1
    16     9    11    1
    17     9    12    1
    18    10    17    1
    19    11    13   ar
    20    11    15   ar
    21    12    14   ar
    22    12    16   ar
    23    13    19   ar
    24    14    20   ar
    25    15    21   ar
    26    16    22   ar
    27    19    23   ar
    28    20    24   ar
    29    21    23   ar
    30    22    24   ar
    31    26    28   ar
    32    27    28   ar
    33    10    31    1
    34    13    32    1
    35    14    33    1
    36    15    34    1
    37    16    35    1
    38    18    36    1
    39    18    37    1
    40    18    38    1
    41    19    39    1
    42    20    40    1
    43    21    41    1
    44    22    42    1
    45    23    43    1
    46    24    44    1
    47    28    45    1
    48    29    46    1
    49    29    47    1
    50    29    48    1
    51    30    49    1
    52    30    50    1
    53    30    51    1
@<TRIPOS>MOLECULE
177236
 51 53 0 0 0
SMALL
GASTEIGER

@<TRIPOS>ATOM
      1 O          -2.3575    0.7120   -1.8130 O.3     1  LIG1       -0.3632
      2 O           0.5888    0.1569    0.5257 O.3     1  LIG1       -0.4494
      3 O           1.0075    2.7697    0.1587 O.co2   1  LIG1       -0.5459
      4 O          -0.7721    3.0155   -1.2169 O.co2   1  LIG1       -0.5459
      5 O           4.2871   -0.6253   -2.2398 O.3     1  LIG1       -0.4794
      6 O           4.6780   -0.2764    2.4941 O.3     1  LIG1       -0.4794
      7 N           2.4125   -0.1716   -0.8965 N.ar    1  LIG1       -0.1594
      8 N           2.6813   -0.0385    1.4606 N.ar    1  LIG1       -0.1594
      9 C          -1.6002    0.2394   -0.6563 C.3     1  LIG1        0.1609
     10 C          -0.1249    0.7790   -0.5900 C.3     1  LIG1        0.1791
     11 C          -2.3809    0.6899    0.6144 C.ar    1  LIG1       -0.0075
     12 C          -1.7415   -1.3160   -0.8142 C.ar    1  LIG1       -0.0075
     13 C          -2.1342    0.1009    1.8695 C.ar    1  LIG1       -0.0554
     14 C          -3.0363   -1.8816   -0.8744 C.ar    1  LIG1       -0.0554
     15 C          -3.3600    1.6978    0.5493 C.ar    1  LIG1       -0.0554
     16 C          -0.6561   -2.1905   -0.9786 C.ar    1  LIG1       -0.0554
     17 C           0.0241    2.3302   -0.5104 C.2     1  LIG1        0.0856
     18 C          -1.7070    0.6636   -3.0724 C.3     1  LIG1        0.0382
     19 C          -2.8509    0.4895    3.0048 C.ar    1  LIG1       -0.0614
     20 C          -3.2321   -3.2502   -1.0729 C.ar    1  LIG1       -0.0614
     21 C          -4.0849    2.0785    1.6817 C.ar    1  LIG1       -0.0614
     22 C          -0.8500   -3.5636   -1.1684 C.ar    1  LIG1       -0.0614
     23 C          -3.8322    1.4723    2.9089 C.ar    1  LIG1       -0.0617
     24 C          -2.1361   -4.0929   -1.2167 C.ar    1  LIG1       -0.0617
     25 C           1.9537    0.0672    0.3413 C.ar    1  LIG1        0.3249
     26 C           3.7279   -0.3750   -0.9982 C.ar    1  LIG1        0.2240
     27 C           4.0009   -0.2251    1.3043 C.ar    1  LIG1        0.2240
     28 C           4.5847   -0.4026    0.0718 C.ar    1  LIG1        0.0617
     29 C           3.3249   -0.5815   -3.2913 C.3     1  LIG1        0.0804
     30 C           6.0912   -0.1634    2.4272 C.3     1  LIG1        0.0804
     31 H           0.3531    0.5040   -1.5372 H       1  LIG1        0.0834
     32 H          -1.3672   -0.6642    1.9720 H       1  LIG1        0.0621
     33 H          -3.9061   -1.2317   -0.7826 H       1  LIG1        0.0621
     34 H          -3.5472    2.2095   -0.3939 H       1  LIG1        0.0621
     35 H           0.3650   -1.8277   -0.9769 H       1  LIG1        0.0621
     36 H          -2.4455    0.9197   -3.8376 H       1  LIG1        0.0524
     37 H          -1.3277   -0.3371   -3.2958 H       1  LIG1        0.0524
     38 H          -0.8989    1.3937   -3.1456 H       1  LIG1        0.0524
     39 H          -2.6284    0.0301    3.9630 H       1  LIG1        0.0618
     40 H          -4.2414   -3.6477   -1.1210 H       1  LIG1        0.0618
     41 H          -4.8309    2.8630    1.5997 H       1  LIG1        0.0618
     42 H           0.0125   -4.2137   -1.2852 H       1  LIG1        0.0618
     43 H          -4.3835    1.7802    3.7915 H       1  LIG1        0.0618
     44 H          -2.2823   -5.1571   -1.3727 H       1  LIG1        0.0618
     45 H           5.6360   -0.5835   -0.0802 H       1  LIG1        0.0724
     46 H           3.8498   -0.7797   -4.2307 H       1  LIG1        0.0660
     47 H           2.8629    0.4089   -3.3692 H       1  LIG1        0.0660
     48 H           2.5657   -1.3623   -3.1664 H       1  LIG1        0.0660
     49 H           6.4684   -0.0534    3.4485 H       1  LIG1        0.0660
     50 H           6.4028    0.7214    1.8612 H       1  LIG1        0.0660
     51 H           6.5338   -1.0736    2.0089 H       1  LIG1        0.0660
@<TRIPOS>BOND
     1     1     9    1
     2     1    18    1
     3     2    10    1
     4     2    25    1
     5     3    17   ar
     6     4    17   ar
     7     5    26    1
     8     5    29    1
     9     6    27    1
    10     6    30    1
    11     7    25   ar
    12     7    26   ar
    13     8    25   ar
    14     8    27   ar
    15     9    10    1
    16     9    11    1
    17     9    12    1
    18    10    17    1
    19    11    13   ar
    20    11    15   ar
    21    12    14   ar
    22    12    16   ar
    23    13    19   ar
    24    14    20   ar
    25    15    21   ar
    26    16    22   ar
    27    19    23   ar
    28    20    24   ar
    29    21    23   ar
    30    22    24   ar
    31    26    28   ar
    32    27    28   ar
    33    10    31    1
    34    13    32    1
    35    14    33    1
    36    15    34    1
    37    16    35    1
    38    18    36    1
    39    18    37    1
    40    18    38    1
    41    19    39    1
    42    20    40    1
    43    21    41    1
    44    22    42    1
    45    23    43    1
    46    24    44    1
    47    28    45    1
    48    29    46    1
    49    29    47    1
    50    29    48    1
    51    30    49    1
    52    30    50    1
    53    30    51    1
@<TRIPOS>MOLECULE
177236
 51 53 0 0 0
SMALL
GASTEIGER

@<TRIPOS>ATOM
      1 O          -2.3061    0.8024   -1.8324 O.3     1  LIG1       -0.3632
      2 O           0.5611    0.1254    0.5643 O.3     1  LIG1       -0.4494
      3 O           0.7492    2.7468    0.4846 O.co2   1  LIG1       -0.5459
      4 O          -0.4469    2.9793   -1.4234 O.co2   1  LIG1       -0.5459
      5 O           4.3701   -0.4184   -2.1145 O.3     1  LIG1       -0.4794
      6 O           4.7596   -0.2399    2.5442 O.3     1  LIG1       -0.4794
      7 N           2.4425   -0.0958   -0.8076 N.ar    1  LIG1       -0.1594
      8 N           2.6260   -0.0315    1.5615 N.ar    1  LIG1       -0.1594
      9 C          -1.5926    0.2369   -0.6870 C.3     1  LIG1        0.1609
     10 C          -0.1125    0.7505   -0.5713 C.3     1  LIG1        0.1791
     11 C          -2.3937    0.6735    0.5713 C.ar    1  LIG1       -0.0075
     12 C          -1.7581   -1.3153   -0.9015 C.ar    1  LIG1       -0.0075
     13 C          -2.4370   -0.1152    1.7371 C.ar    1  LIG1       -0.0554
     14 C          -0.7446   -2.2578   -0.6721 C.ar    1  LIG1       -0.0554
     15 C          -3.0707    1.9070    0.5959 C.ar    1  LIG1       -0.0554
     16 C          -3.0045   -1.8170   -1.3449 C.ar    1  LIG1       -0.0554
     17 C           0.0498    2.3020   -0.4748 C.2     1  LIG1        0.0856
     18 C          -1.6660    0.7109   -3.0981 C.3     1  LIG1        0.0382
     19 C          -3.1585    0.2937    2.8625 C.ar    1  LIG1       -0.0614
     20 C          -0.9598   -3.6270   -0.8726 C.ar    1  LIG1       -0.0614
     21 C          -3.7854    2.3201    1.7232 C.ar    1  LIG1       -0.0614
     22 C          -3.2140   -3.1792   -1.5719 C.ar    1  LIG1       -0.0614
     23 C          -3.8357    1.5099    2.8538 C.ar    1  LIG1       -0.0617
     24 C          -2.1896   -4.0874   -1.3312 C.ar    1  LIG1       -0.0617
     25 C           1.9347    0.0810    0.4211 C.ar    1  LIG1        0.3249
     26 C           3.7697   -0.2569   -0.8801 C.ar    1  LIG1        0.2240
     27 C           3.9527   -0.1791    1.4206 C.ar    1  LIG1        0.2240
     28 C           4.5876   -0.3150    0.2130 C.ar    1  LIG1        0.0617
     29 C           3.4938   -0.0832   -3.1907 C.3     1  LIG1        0.0804
     30 C           4.0801    0.1959    3.7195 C.3     1  LIG1        0.0804
     31 H           0.3820    0.4575   -1.5054 H       1  LIG1        0.0834
     32 H          -1.8935   -1.0561    1.7835 H       1  LIG1        0.0621
     33 H           0.2349   -1.9675   -0.3215 H       1  LIG1        0.0621
     34 H          -3.0173    2.5696   -0.2688 H       1  LIG1        0.0621
     35 H          -3.8248   -1.1218   -1.5318 H       1  LIG1        0.0621
     36 H          -2.3821    1.0446   -3.8542 H       1  LIG1        0.0524
     37 H          -1.3799   -0.3162   -3.3385 H       1  LIG1        0.0524
     38 H          -0.7923    1.3584   -3.1718 H       1  LIG1        0.0524
     39 H          -3.1732   -0.3329    3.7485 H       1  LIG1        0.0618
     40 H          -0.1555   -4.3304   -0.6691 H       1  LIG1        0.0618
     41 H          -4.2818    3.2856    1.7158 H       1  LIG1        0.0618
     42 H          -4.1781   -3.5243   -1.9342 H       1  LIG1        0.0618
     43 H          -4.3816    1.8371    3.7329 H       1  LIG1        0.0618
     44 H          -2.3482   -5.1502   -1.4963 H       1  LIG1        0.0618
     45 H           5.6577   -0.4515    0.1337 H       1  LIG1        0.0724
     46 H           4.0573   -0.1860   -4.1223 H       1  LIG1        0.0660
     47 H           3.1568    0.9565   -3.1171 H       1  LIG1        0.0660
     48 H           2.6430   -0.7713   -3.2416 H       1  LIG1        0.0660
     49 H           4.8109    0.2207    4.5328 H       1  LIG1        0.0660
     50 H           3.2912   -0.5088    4.0024 H       1  LIG1        0.0660
     51 H           3.6823    1.2098    3.6006 H       1  LIG1        0.0660
@<TRIPOS>BOND
     1     1     9    1
     2     1    18    1
     3     2    10    1
     4     2    25    1
     5     3    17   ar
     6     4    17   ar
     7     5    26    1
     8     5    29    1
     9     6    27    1
    10     6    30    1
    11     7    25   ar
    12     7    26   ar
    13     8    25   ar
    14     8    27   ar
    15     9    10    1
    16     9    11    1
    17     9    12    1
    18    10    17    1
    19    11    13   ar
    20    11    15   ar
    21    12    14   ar
    22    12    16   ar
    23    13    19   ar
    24    14    20   ar
    25    15    21   ar
    26    16    22   ar
    27    19    23   ar
    28    20    24   ar
    29    21    23   ar
    30    22    24   ar
    31    26    28   ar
    32    27    28   ar
    33    10    31    1
    34    13    32    1
    35    14    33    1
    36    15    34    1
    37    16    35    1
    38    18    36    1
    39    18    37    1
    40    18    38    1
    41    19    39    1
    42    20    40    1
    43    21    41    1
    44    22    42    1
    45    23    43    1
    46    24    44    1
    47    28    45    1
    48    29    46    1
    49    29    47    1
    50    29    48    1
    51    30    49    1
    52    30    50    1
    53    30    51    1
@<TRIPOS>MOLECULE
177236
 51 53 0 0 0
SMALL
GASTEIGER

@<TRIPOS>ATOM
      1 O          -2.3038    0.8044   -1.8186 O.3     1  LIG1       -0.3632
      2 O           0.5573    0.1513    0.5968 O.3     1  LIG1       -0.4494
      3 O           0.8810    2.7584    0.3962 O.co2   1  LIG1       -0.5459
      4 O          -0.5546    3.0080   -1.3332 O.co2   1  LIG1       -0.5459
      5 O           4.2739   -0.7647   -2.1059 O.3     1  LIG1       -0.4794
      6 O           4.8208    0.0388    2.4732 O.3     1  LIG1       -0.4794
      7 N           2.3929   -0.2705   -0.7858 N.ar    1  LIG1       -0.1594
      8 N           2.6551    0.1040    1.5477 N.ar    1  LIG1       -0.1594
      9 C          -1.5920    0.2451   -0.6696 C.3     1  LIG1        0.1609
     10 C          -0.1142    0.7682   -0.5467 C.3     1  LIG1        0.1791
     11 C          -2.3984    0.6763    0.5876 C.ar    1  LIG1       -0.0075
     12 C          -1.7541   -1.3064   -0.8870 C.ar    1  LIG1       -0.0075
     13 C          -2.4385   -0.1129    1.7527 C.ar    1  LIG1       -0.0554
     14 C          -0.7436   -2.2504   -0.6475 C.ar    1  LIG1       -0.0554
     15 C          -3.0835    1.9050    0.6112 C.ar    1  LIG1       -0.0554
     16 C          -2.9968   -1.8086   -1.3432 C.ar    1  LIG1       -0.0554
     17 C           0.0587    2.3213   -0.4621 C.2     1  LIG1        0.0856
     18 C          -1.6488    0.7316   -3.0775 C.3     1  LIG1        0.0382
     19 C          -3.1633    0.2916    2.8775 C.ar    1  LIG1       -0.0614
     20 C          -0.9556   -3.6192   -0.8543 C.ar    1  LIG1       -0.0614
     21 C          -3.8013    2.3139    1.7379 C.ar    1  LIG1       -0.0614
     22 C          -3.2021   -3.1718   -1.5756 C.ar    1  LIG1       -0.0614
     23 C          -3.8479    1.5040    2.8686 C.ar    1  LIG1       -0.0617
     24 C          -2.1790   -4.0793   -1.3274 C.ar    1  LIG1       -0.0617
     25 C           1.9266    0.0721    0.4257 C.ar    1  LIG1        0.3249
     26 C           3.7144   -0.4446   -0.8815 C.ar    1  LIG1        0.2240
     27 C           3.9757   -0.0541    1.3796 C.ar    1  LIG1        0.2240
     28 C           4.5747   -0.3547    0.1821 C.ar    1  LIG1        0.0617
     29 C           3.3287   -0.6870   -3.1712 C.3     1  LIG1        0.0804
     30 C           4.2206    0.7660    3.5432 C.3     1  LIG1        0.0804
     31 H           0.3868    0.4772   -1.4774 H       1  LIG1        0.0834
     32 H          -1.8907   -1.0512    1.7996 H       1  LIG1        0.0621
     33 H           0.2328   -1.9589   -0.2810 H       1  LIG1        0.0621
     34 H          -3.0343    2.5672   -0.2537 H       1  LIG1        0.0621
     35 H          -3.8137   -1.1149   -1.5368 H       1  LIG1        0.0621
     36 H          -2.3635    1.0536   -3.8406 H       1  LIG1        0.0524
     37 H          -1.3388   -0.2887   -3.3183 H       1  LIG1        0.0524
     38 H          -0.7879    1.3984   -3.1384 H       1  LIG1        0.0524
     39 H          -3.1763   -0.3360    3.7634 H       1  LIG1        0.0618
     40 H          -0.1529   -4.3213   -0.6416 H       1  LIG1        0.0618
     41 H          -4.3043    3.2764    1.7294 H       1  LIG1        0.0618
     42 H          -4.1611   -3.5152   -1.9503 H       1  LIG1        0.0618
     43 H          -4.3967    1.8274    3.7472 H       1  LIG1        0.0618
     44 H          -2.3348   -5.1397   -1.4970 H       1  LIG1        0.0618
     45 H           5.6366   -0.4970    0.0822 H       1  LIG1        0.0724
     46 H           3.8629   -0.8960   -4.1037 H       1  LIG1        0.0660
     47 H           2.8987    0.3173   -3.2525 H       1  LIG1        0.0660
     48 H           2.5455   -1.4442   -3.0607 H       1  LIG1        0.0660
     49 H           4.9826    0.8991    4.3185 H       1  LIG1        0.0660
     50 H           3.3897    0.2091    3.9871 H       1  LIG1        0.0660
     51 H           3.9015    1.7640    3.2186 H       1  LIG1        0.0660
@<TRIPOS>BOND
     1     1     9    1
     2     1    18    1
     3     2    10    1
     4     2    25    1
     5     3    17   ar
     6     4    17   ar
     7     5    26    1
     8     5    29    1
     9     6    27    1
    10     6    30    1
    11     7    25   ar
    12     7    26   ar
    13     8    25   ar
    14     8    27   ar
    15     9    10    1
    16     9    11    1
    17     9    12    1
    18    10    17    1
    19    11    13   ar
    20    11    15   ar
    21    12    14   ar
    22    12    16   ar
    23    13    19   ar
    24    14    20   ar
    25    15    21   ar
    26    16    22   ar
    27    19    23   ar
    28    20    24   ar
    29    21    23   ar
    30    22    24   ar
    31    26    28   ar
    32    27    28   ar
    33    10    31    1
    34    13    32    1
    35    14    33    1
    36    15    34    1
    37    16    35    1
    38    18    36    1
    39    18    37    1
    40    18    38    1
    41    19    39    1
    42    20    40    1
    43    21    41    1
    44    22    42    1
    45    23    43    1
    46    24    44    1
    47    28    45    1
    48    29    46    1
    49    29    47    1
    50    29    48    1
    51    30    49    1
    52    30    50    1
    53    30    51    1
@<TRIPOS>MOLECULE
177236
 51 53 0 0 0
SMALL
GASTEIGER

@<TRIPOS>ATOM
      1 O          -2.2289    0.8524   -1.8036 O.3     1  LIG1       -0.3632
      2 O           0.6303    0.1026    0.5800 O.3     1  LIG1       -0.4494
      3 O          -0.0671    2.7969    0.5887 O.co2   1  LIG1       -0.5459
      4 O           0.5289    2.7374   -1.6052 O.co2   1  LIG1       -0.5459
      5 O           4.8376   -0.3554    2.5211 O.3     1  LIG1       -0.4794
      6 O           4.4289   -0.3184   -2.1376 O.3     1  LIG1       -0.4794
      7 N           2.7010   -0.0704    1.5586 N.ar    1  LIG1       -0.1594
      8 N           2.5091   -0.0651   -0.8061 N.ar    1  LIG1       -0.1594
      9 C          -1.5677    0.2436   -0.6431 C.3     1  LIG1        0.1609
     10 C          -0.0617    0.6795   -0.5615 C.3     1  LIG1        0.1791
     11 C          -2.3915    0.6634    0.6062 C.ar    1  LIG1       -0.0075
     12 C          -1.7871   -1.3022   -0.8543 C.ar    1  LIG1       -0.0075
     13 C          -3.4330    1.6075    0.5196 C.ar    1  LIG1       -0.0554
     14 C          -3.0361   -1.7634   -1.3287 C.ar    1  LIG1       -0.0554
     15 C          -2.1387    0.0956    1.8695 C.ar    1  LIG1       -0.0554
     16 C          -0.8092   -2.2747   -0.5886 C.ar    1  LIG1       -0.0554
     17 C           0.1172    2.2190   -0.5179 C.2     1  LIG1        0.0856
     18 C          -1.5904    0.7135   -3.0656 C.3     1  LIG1        0.0382
     19 C          -4.1938    1.9593    1.6385 C.ar    1  LIG1       -0.0614
     20 C          -3.2797   -3.1206   -1.5552 C.ar    1  LIG1       -0.0614
     21 C          -2.8936    0.4519    2.9909 C.ar    1  LIG1       -0.0614
     22 C          -1.0597   -3.6379   -0.7973 C.ar    1  LIG1       -0.0614
     23 C          -3.9246    1.3800    2.8751 C.ar    1  LIG1       -0.0617
     24 C          -2.2896   -4.0583   -1.2893 C.ar    1  LIG1       -0.0617
     25 C           2.0004    0.0678    0.4258 C.ar    1  LIG1        0.3249
     26 C           4.0245   -0.2255    1.4073 C.ar    1  LIG1        0.2240
     27 C           3.8343   -0.2060   -0.8935 C.ar    1  LIG1        0.2240
     28 C           4.6620   -0.2987    0.1932 C.ar    1  LIG1        0.0617
     29 C           4.1080   -0.2676    3.7448 C.3     1  LIG1        0.0804
     30 C           3.5222   -0.0186   -3.1981 C.3     1  LIG1        0.0804
     31 H           0.3989    0.3169   -1.4877 H       1  LIG1        0.0834
     32 H          -3.6493    2.0975   -0.4286 H       1  LIG1        0.0621
     33 H          -3.8259   -1.0458   -1.5363 H       1  LIG1        0.0621
     34 H          -1.3336   -0.6226    1.9936 H       1  LIG1        0.0621
     35 H           0.1693   -2.0099   -0.2059 H       1  LIG1        0.0621
     36 H          -2.3242    0.9702   -3.8354 H       1  LIG1        0.0524
     37 H          -1.2500   -0.3080   -3.2527 H       1  LIG1        0.0524
     38 H          -0.7589    1.4091   -3.1740 H       1  LIG1        0.0524
     39 H          -4.9806    2.7004    1.5409 H       1  LIG1        0.0618
     40 H          -4.2429   -3.4364   -1.9408 H       1  LIG1        0.0618
     41 H          -2.6596    0.0137    3.9574 H       1  LIG1        0.0618
     42 H          -0.2826   -4.3617   -0.5718 H       1  LIG1        0.0618
     43 H          -4.5012    1.6680    3.7478 H       1  LIG1        0.0618
     44 H          -2.4746   -5.1161   -1.4593 H       1  LIG1        0.0618
     45 H           5.7273   -0.4292    0.1022 H       1  LIG1        0.0724
     46 H           4.8280   -0.3538    4.5645 H       1  LIG1        0.0660
     47 H           3.3970   -1.0967    3.8394 H       1  LIG1        0.0660
     48 H           3.6055    0.7007    3.8434 H       1  LIG1        0.0660
     49 H           4.0765   -0.0894   -4.1393 H       1  LIG1        0.0660
     50 H           3.1345    1.0033   -3.1141 H       1  LIG1        0.0660
     51 H           2.7054   -0.7488   -3.2428 H       1  LIG1        0.0660
@<TRIPOS>BOND
     1     1     9    1
     2     1    18    1
     3     2    10    1
     4     2    25    1
     5     3    17   ar
     6     4    17   ar
     7     5    26    1
     8     5    29    1
     9     6    27    1
    10     6    30    1
    11     7    25   ar
    12     7    26   ar
    13     8    25   ar
    14     8    27   ar
    15     9    10    1
    16     9    11    1
    17     9    12    1
    18    10    17    1
    19    11    13   ar
    20    11    15   ar
    21    12    14   ar
    22    12    16   ar
    23    13    19   ar
    24    14    20   ar
    25    15    21   ar
    26    16    22   ar
    27    19    23   ar
    28    20    24   ar
    29    21    23   ar
    30    22    24   ar
    31    26    28   ar
    32    27    28   ar
    33    10    31    1
    34    13    32    1
    35    14    33    1
    36    15    34    1
    37    16    35    1
    38    18    36    1
    39    18    37    1
    40    18    38    1
    41    19    39    1
    42    20    40    1
    43    21    41    1
    44    22    42    1
    45    23    43    1
    46    24    44    1
    47    28    45    1
    48    29    46    1
    49    29    47    1
    50    29    48    1
    51    30    49    1
    52    30    50    1
    53    30    51    1
@<TRIPOS>MOLECULE
177236
 51 53 0 0 0
SMALL
GASTEIGER

@<TRIPOS>ATOM
      1 O          -2.3890    0.7044   -1.7863 O.3     1  LIG1       -0.3632
      2 O           0.5611    0.0403    0.5027 O.3     1  LIG1       -0.4494
      3 O           0.7913    2.6878    0.5047 O.co2   1  LIG1       -0.5459
      4 O          -0.6196    2.9934   -1.2422 O.co2   1  LIG1       -0.5459
      5 O           4.3340   -0.8370   -2.1295 O.3     1  LIG1       -0.4794
      6 O           4.7745   -0.0946    2.4629 O.3     1  LIG1       -0.4794
      7 N           2.4149   -0.3225   -0.8646 N.ar    1  LIG1       -0.1594
      8 N           2.6322    0.0005    1.4836 N.ar    1  LIG1       -0.1594
      9 C          -1.6186    0.2250   -0.6466 C.3     1  LIG1        0.1609
     10 C          -0.1363    0.7421   -0.5724 C.3     1  LIG1        0.1791
     11 C          -2.3884    0.6891    0.6301 C.ar    1  LIG1       -0.0075
     12 C          -1.7380   -1.3315   -0.8133 C.ar    1  LIG1       -0.0075
     13 C          -2.1147    0.1322    1.8946 C.ar    1  LIG1       -0.0554
     14 C          -0.6862   -2.1274   -1.3034 C.ar    1  LIG1       -0.0554
     15 C          -3.3819    1.6840    0.5597 C.ar    1  LIG1       -0.0554
     16 C          -2.9694   -1.9775   -0.5715 C.ar    1  LIG1       -0.0554
     17 C          -0.0056    2.2819   -0.3930 C.2     1  LIG1        0.0856
     18 C          -1.7608    0.6961   -3.0561 C.3     1  LIG1        0.0382
     19 C          -2.8195    0.5364    3.0322 C.ar    1  LIG1       -0.0614
     20 C          -0.8428   -3.5023   -1.5077 C.ar    1  LIG1       -0.0614
     21 C          -4.0942    2.0803    1.6949 C.ar    1  LIG1       -0.0614
     22 C          -3.1250   -3.3528   -0.7644 C.ar    1  LIG1       -0.0614
     23 C          -3.8146    1.5046    2.9308 C.ar    1  LIG1       -0.0617
     24 C          -2.0602   -4.1160   -1.2320 C.ar    1  LIG1       -0.0617
     25 C           1.9255   -0.0062    0.3456 C.ar    1  LIG1        0.3249
     26 C           3.7412   -0.5000   -0.9256 C.ar    1  LIG1        0.2240
     27 C           3.9558   -0.1444    1.3478 C.ar    1  LIG1        0.2240
     28 C           4.5803   -0.3986    0.1541 C.ar    1  LIG1        0.0617
     29 C           3.3790   -1.1448   -3.1417 C.3     1  LIG1        0.0804
     30 C           4.0665    0.2907    3.6395 C.3     1  LIG1        0.0804
     31 H           0.3495    0.5296   -1.5311 H       1  LIG1        0.0834
     32 H          -1.3379   -0.6214    2.0025 H       1  LIG1        0.0621
     33 H           0.2741   -1.6893   -1.5575 H       1  LIG1        0.0621
     34 H          -3.5935    2.1734   -0.3891 H       1  LIG1        0.0621
     35 H          -3.8264   -1.3973   -0.2340 H       1  LIG1        0.0621
     36 H          -2.4959    1.0399   -3.7904 H       1  LIG1        0.0524
     37 H          -1.4507   -0.3101   -3.3470 H       1  LIG1        0.0524
     38 H          -0.9115    1.3786   -3.1078 H       1  LIG1        0.0524
     39 H          -2.5755    0.1017    3.9965 H       1  LIG1        0.0618
     40 H          -0.0103   -4.0853   -1.8884 H       1  LIG1        0.0618
     41 H          -4.8508    2.8534    1.6083 H       1  LIG1        0.0618
     42 H          -4.0837   -3.8196   -0.5569 H       1  LIG1        0.0618
     43 H          -4.3551    1.8254    3.8151 H       1  LIG1        0.0618
     44 H          -2.1810   -5.1830   -1.3910 H       1  LIG1        0.0618
     45 H           5.6465   -0.5354    0.0756 H       1  LIG1        0.0724
     46 H           3.9307   -1.4280   -4.0443 H       1  LIG1        0.0660
     47 H           2.7597   -0.2763   -3.3883 H       1  LIG1        0.0660
     48 H           2.7606   -2.0014   -2.8513 H       1  LIG1        0.0660
     49 H           4.7935    0.3572    4.4557 H       1  LIG1        0.0660
     50 H           3.3255   -0.4673    3.9191 H       1  LIG1        0.0660
     51 H           3.6032    1.2760    3.5258 H       1  LIG1        0.0660
@<TRIPOS>BOND
     1     1     9    1
     2     1    18    1
     3     2    10    1
     4     2    25    1
     5     3    17   ar
     6     4    17   ar
     7     5    26    1
     8     5    29    1
     9     6    27    1
    10     6    30    1
    11     7    25   ar
    12     7    26   ar
    13     8    25   ar
    14     8    27   ar
    15     9    10    1
    16     9    11    1
    17     9    12    1
    18    10    17    1
    19    11    13   ar
    20    11    15   ar
    21    12    14   ar
    22    12    16   ar
    23    13    19   ar
    24    14    20   ar
    25    15    21   ar
    26    16    22   ar
    27    19    23   ar
    28    20    24   ar
    29    21    23   ar
    30    22    24   ar
    31    26    28   ar
    32    27    28   ar
    33    10    31    1
    34    13    32    1
    35    14    33    1
    36    15    34    1
    37    16    35    1
    38    18    36    1
    39    18    37    1
    40    18    38    1
    41    19    39    1
    42    20    40    1
    43    21    41    1
    44    22    42    1
    45    23    43    1
    46    24    44    1
    47    28    45    1
    48    29    46    1
    49    29    47    1
    50    29    48    1
    51    30    49    1
    52    30    50    1
    53    30    51    1
@<TRIPOS>MOLECULE
177236
 51 53 0 0 0
SMALL
GASTEIGER

@<TRIPOS>ATOM
      1 O          -2.3018    0.8046   -1.8365 O.3     1  LIG1       -0.3632
      2 O           0.5502    0.0428    0.5490 O.3     1  LIG1       -0.4494
      3 O           0.4568    2.6907    0.6503 O.co2   1  LIG1       -0.5459
      4 O          -0.1449    2.8910   -1.5285 O.co2   1  LIG1       -0.5459
      5 O           4.3696   -0.6267   -2.0769 O.3     1  LIG1       -0.4794
      6 O           4.7414   -0.1782    2.5654 O.3     1  LIG1       -0.4794
      7 N           2.4376   -0.2245   -0.7975 N.ar    1  LIG1       -0.1594
      8 N           2.6118   -0.0276    1.5639 N.ar    1  LIG1       -0.1594
      9 C          -1.6012    0.2259   -0.6916 C.3     1  LIG1        0.1609
     10 C          -0.1102    0.6933   -0.5795 C.3     1  LIG1        0.1791
     11 C          -2.3918    0.6802    0.5678 C.ar    1  LIG1       -0.0075
     12 C          -1.8015   -1.3183   -0.9031 C.ar    1  LIG1       -0.0075
     13 C          -3.1039    1.8939    0.5717 C.ar    1  LIG1       -0.0554
     14 C          -3.1023   -1.8099   -1.1591 C.ar    1  LIG1       -0.0554
     15 C          -2.3955   -0.0830    1.7511 C.ar    1  LIG1       -0.0554
     16 C          -0.7584   -2.2585   -0.8782 C.ar    1  LIG1       -0.0554
     17 C           0.0522    2.2366   -0.4595 C.2     1  LIG1        0.0856
     18 C          -1.6841    0.6643   -3.1079 C.3     1  LIG1        0.0382
     19 C          -3.8183    2.3099    1.6979 C.ar    1  LIG1       -0.0614
     20 C          -3.3444   -3.1692   -1.3728 C.ar    1  LIG1       -0.0614
     21 C          -3.1157    0.3298    2.8753 C.ar    1  LIG1       -0.0614
     22 C          -1.0020   -3.6225   -1.0747 C.ar    1  LIG1       -0.0614
     23 C          -3.8309    1.5239    2.8468 C.ar    1  LIG1       -0.0617
     24 C          -2.2926   -4.0774   -1.3244 C.ar    1  LIG1       -0.0617
     25 C           1.9229    0.0162    0.4181 C.ar    1  LIG1        0.3249
     26 C           3.7646   -0.3866   -0.8568 C.ar    1  LIG1        0.2240
     27 C           3.9390   -0.1736    1.4369 C.ar    1  LIG1        0.2240
     28 C           4.5811   -0.3694    0.2413 C.ar    1  LIG1        0.0617
     29 C           3.4509   -0.5579   -3.1660 C.3     1  LIG1        0.0804
     30 C           4.0419    0.2591    3.7277 C.3     1  LIG1        0.0804
     31 H           0.3811    0.4033   -1.5161 H       1  LIG1        0.0834
     32 H          -3.0786    2.5391   -0.3060 H       1  LIG1        0.0621
     33 H          -3.9364   -1.1101   -1.2016 H       1  LIG1        0.0621
     34 H          -1.8213   -1.0049    1.8080 H       1  LIG1        0.0621
     35 H           0.2694   -1.9608   -0.7057 H       1  LIG1        0.0621
     36 H          -2.3979    1.0096   -3.8616 H       1  LIG1        0.0524
     37 H          -1.4398   -0.3770   -3.3341 H       1  LIG1        0.0524
     38 H          -0.7891    1.2789   -3.2045 H       1  LIG1        0.0524
     39 H          -4.3430    3.2602    1.6765 H       1  LIG1        0.0618
     40 H          -4.3548   -3.5106   -1.5762 H       1  LIG1        0.0618
     41 H          -3.0986   -0.2752    3.7765 H       1  LIG1        0.0618
     42 H          -0.1735   -4.3243   -1.0325 H       1  LIG1        0.0618
     43 H          -4.3750    1.8550    3.7254 H       1  LIG1        0.0618
     44 H          -2.4759   -5.1355   -1.4827 H       1  LIG1        0.0618
     45 H           5.6488   -0.5049    0.1720 H       1  LIG1        0.0724
     46 H           4.0134   -0.7359   -4.0875 H       1  LIG1        0.0660
     47 H           2.9933    0.4348   -3.2406 H       1  LIG1        0.0660
     48 H           2.6866   -1.3399   -3.0896 H       1  LIG1        0.0660
     49 H           4.7622    0.3000    4.5506 H       1  LIG1        0.0660
     50 H           3.2576   -0.4521    4.0088 H       1  LIG1        0.0660
     51 H           3.6339    1.2671    3.5933 H       1  LIG1        0.0660
@<TRIPOS>BOND
     1     1     9    1
     2     1    18    1
     3     2    10    1
     4     2    25    1
     5     3    17   ar
     6     4    17   ar
     7     5    26    1
     8     5    29    1
     9     6    27    1
    10     6    30    1
    11     7    25   ar
    12     7    26   ar
    13     8    25   ar
    14     8    27   ar
    15     9    10    1
    16     9    11    1
    17     9    12    1
    18    10    17    1
    19    11    13   ar
    20    11    15   ar
    21    12    14   ar
    22    12    16   ar
    23    13    19   ar
    24    14    20   ar
    25    15    21   ar
    26    16    22   ar
    27    19    23   ar
    28    20    24   ar
    29    21    23   ar
    30    22    24   ar
    31    26    28   ar
    32    27    28   ar
    33    10    31    1
    34    13    32    1
    35    14    33    1
    36    15    34    1
    37    16    35    1
    38    18    36    1
    39    18    37    1
    40    18    38    1
    41    19    39    1
    42    20    40    1
    43    21    41    1
    44    22    42    1
    45    23    43    1
    46    24    44    1
    47    28    45    1
    48    29    46    1
    49    29    47    1
    50    29    48    1
    51    30    49    1
    52    30    50    1
    53    30    51    1
@<TRIPOS>MOLECULE
177236
 51 53 0 0 0
SMALL
GASTEIGER

@<TRIPOS>ATOM
      1 O          -2.3725    0.8045   -1.8026 O.3     1  LIG1       -0.3632
      2 O           0.4906   -0.0197    0.5262 O.3     1  LIG1       -0.4494
      3 O           0.2509    2.6413    0.7243 O.co2   1  LIG1       -0.5459
      4 O           0.0878    2.8311   -1.5362 O.co2   1  LIG1       -0.5459
      5 O           4.3177   -0.5968   -2.1386 O.3     1  LIG1       -0.4794
      6 O           3.6527   -3.1722    1.7126 O.3     1  LIG1       -0.4794
      7 N           2.4146   -0.2114   -0.8084 N.ar    1  LIG1       -0.1594
      8 N           2.0883   -1.5024    1.1582 N.ar    1  LIG1       -0.1594
      9 C          -1.6514    0.2287   -0.6756 C.3     1  LIG1        0.1609
     10 C          -0.1471    0.6629   -0.5867 C.3     1  LIG1        0.1791
     11 C          -2.4199    0.6882    0.6050 C.ar    1  LIG1       -0.0075
     12 C          -1.8341   -1.3208   -0.8804 C.ar    1  LIG1       -0.0075
     13 C          -2.1843    0.0825    1.8556 C.ar    1  LIG1       -0.0554
     14 C          -0.8135   -2.1475   -1.3897 C.ar    1  LIG1       -0.0554
     15 C          -3.3823    1.7146    0.5540 C.ar    1  LIG1       -0.0554
     16 C          -3.0802   -1.9310   -0.6297 C.ar    1  LIG1       -0.0554
     17 C           0.0539    2.1885   -0.4401 C.2     1  LIG1        0.0856
     18 C          -1.7901    0.6945   -3.0898 C.3     1  LIG1        0.0382
     19 C          -2.8901    0.4732    2.9969 C.ar    1  LIG1       -0.0614
     20 C          -1.0059   -3.5197   -1.5775 C.ar    1  LIG1       -0.0614
     21 C          -4.0950    2.0991    1.6936 C.ar    1  LIG1       -0.0614
     22 C          -3.2738   -3.3035   -0.8119 C.ar    1  LIG1       -0.0614
     23 C          -3.8505    1.4768    2.9143 C.ar    1  LIG1       -0.0617
     24 C          -2.2333   -4.0996   -1.2796 C.ar    1  LIG1       -0.0617
     25 C           1.7321   -0.5451    0.2918 C.ar    1  LIG1        0.3249
     26 C           3.5593   -0.8745   -1.0158 C.ar    1  LIG1        0.2240
     27 C           3.2325   -2.1461    0.8859 C.ar    1  LIG1        0.2240
     28 C           4.0242   -1.8710   -0.1975 C.ar    1  LIG1        0.0617
     29 C           3.7914    0.4916   -2.8982 C.3     1  LIG1        0.0804
     30 C           2.7346   -3.4339    2.7721 C.3     1  LIG1        0.0804
     31 H           0.3367    0.3960   -1.5328 H       1  LIG1        0.0834
     32 H          -1.4334   -0.6990    1.9506 H       1  LIG1        0.0621
     33 H           0.1531   -1.7408   -1.6687 H       1  LIG1        0.0621
     34 H          -3.5738    2.2369   -0.3811 H       1  LIG1        0.0621
     35 H          -3.9176   -1.3287   -0.2807 H       1  LIG1        0.0621
     36 H          -2.4722    1.1699   -3.8011 H       1  LIG1        0.0524
     37 H          -1.6777   -0.3486   -3.3941 H       1  LIG1        0.0524
     38 H          -0.8338    1.2114   -3.1658 H       1  LIG1        0.0524
     39 H          -2.6718    0.0014    3.9499 H       1  LIG1        0.0618
     40 H          -0.1917   -4.1271   -1.9620 H       1  LIG1        0.0618
     41 H          -4.8247    2.8998    1.6238 H       1  LIG1        0.0618
     42 H          -4.2408   -3.7440   -0.5884 H       1  LIG1        0.0618
     43 H          -4.3897    1.7895    3.8025 H       1  LIG1        0.0618
     44 H          -2.3808   -5.1653   -1.4220 H       1  LIG1        0.0618
     45 H           4.9376   -2.4072   -0.3985 H       1  LIG1        0.0724
     46 H           4.4578    0.6509   -3.7517 H       1  LIG1        0.0660
     47 H           3.7752    1.4155   -2.3100 H       1  LIG1        0.0660
     48 H           2.7974    0.2553   -3.2946 H       1  LIG1        0.0660
     49 H           3.1293   -4.2720    3.3546 H       1  LIG1        0.0660
     50 H           1.7536   -3.7337    2.3860 H       1  LIG1        0.0660
     51 H           2.6483   -2.5729    3.4438 H       1  LIG1        0.0660
@<TRIPOS>BOND
     1     1     9    1
     2     1    18    1
     3     2    10    1
     4     2    25    1
     5     3    17   ar
     6     4    17   ar
     7     5    26    1
     8     5    29    1
     9     6    27    1
    10     6    30    1
    11     7    25   ar
    12     7    26   ar
    13     8    25   ar
    14     8    27   ar
    15     9    10    1
    16     9    11    1
    17     9    12    1
    18    10    17    1
    19    11    13   ar
    20    11    15   ar
    21    12    14   ar
    22    12    16   ar
    23    13    19   ar
    24    14    20   ar
    25    15    21   ar
    26    16    22   ar
    27    19    23   ar
    28    20    24   ar
    29    21    23   ar
    30    22    24   ar
    31    26    28   ar
    32    27    28   ar
    33    10    31    1
    34    13    32    1
    35    14    33    1
    36    15    34    1
    37    16    35    1
    38    18    36    1
    39    18    37    1
    40    18    38    1
    41    19    39    1
    42    20    40    1
    43    21    41    1
    44    22    42    1
    45    23    43    1
    46    24    44    1
    47    28    45    1
    48    29    46    1
    49    29    47    1
    50    29    48    1
    51    30    49    1
    52    30    50    1
    53    30    51    1
@<TRIPOS>MOLECULE
177236
 51 53 0 0 0
SMALL
GASTEIGER

@<TRIPOS>ATOM
      1 O          -2.2702    0.8119   -1.8477 O.3     1  LIG1       -0.3632
      2 O           0.5918    0.0866    0.5262 O.3     1  LIG1       -0.4494
      3 O           0.2960    2.7228    0.7471 O.co2   1  LIG1       -0.5459
      4 O          -0.0926    2.9602   -1.4811 O.co2   1  LIG1       -0.5459
      5 O           4.5700    0.7057   -1.8992 O.3     1  LIG1       -0.4794
      6 O           4.6437   -1.2096    2.3694 O.3     1  LIG1       -0.4794
      7 N           2.5570    0.4635   -0.7077 N.ar    1  LIG1       -0.1594
      8 N           2.5883   -0.4918    1.4664 N.ar    1  LIG1       -0.1594
      9 C          -1.5764    0.2527   -0.6882 C.3     1  LIG1        0.1609
     10 C          -0.0927    0.7454   -0.5765 C.3     1  LIG1        0.1791
     11 C          -2.3930    0.6791    0.5660 C.ar    1  LIG1       -0.0075
     12 C          -1.7548   -1.2970   -0.8860 C.ar    1  LIG1       -0.0075
     13 C          -2.2048    0.0396    1.8069 C.ar    1  LIG1       -0.0554
     14 C          -0.7037   -2.2263   -0.8284 C.ar    1  LIG1       -0.0554
     15 C          -3.3419    1.7164    0.5058 C.ar    1  LIG1       -0.0554
     16 C          -3.0466   -1.8059   -1.1546 C.ar    1  LIG1       -0.0554
     17 C           0.0184    2.2867   -0.4081 C.2     1  LIG1        0.0856
     18 C          -1.6208    0.6948   -3.1052 C.3     1  LIG1        0.0382
     19 C          -2.9480    0.4074    2.9317 C.ar    1  LIG1       -0.0614
     20 C          -0.9323   -3.5970   -1.0027 C.ar    1  LIG1       -0.0614
     21 C          -4.0900    2.0801    1.6292 C.ar    1  LIG1       -0.0614
     22 C          -3.2732   -3.1704   -1.3479 C.ar    1  LIG1       -0.0614
     23 C          -3.8949    1.4233    2.8409 C.ar    1  LIG1       -0.0617
     24 C          -2.2146   -4.0681   -1.2647 C.ar    1  LIG1       -0.0617
     25 C           1.9663    0.0946    0.4360 C.ar    1  LIG1        0.3249
     26 C           3.8875    0.3212   -0.7595 C.ar    1  LIG1        0.2240
     27 C           3.9177   -0.6223    1.3469 C.ar    1  LIG1        0.2240
     28 C           4.6321   -0.2385    0.2419 C.ar    1  LIG1        0.0617
     29 C           3.7692    1.5172   -2.7595 C.3     1  LIG1        0.0804
     30 C           3.8516   -1.4608    3.5269 C.3     1  LIG1        0.0804
     31 H           0.4042    0.4749   -1.5179 H       1  LIG1        0.0834
     32 H          -1.4589   -0.7454    1.9073 H       1  LIG1        0.0621
     33 H           0.3187   -1.9183   -0.6450 H       1  LIG1        0.0621
     34 H          -3.4895    2.2657   -0.4226 H       1  LIG1        0.0621
     35 H          -3.8872   -1.1157   -1.2213 H       1  LIG1        0.0621
     36 H          -2.3514    0.9459   -3.8794 H       1  LIG1        0.0524
     37 H          -1.2674   -0.3222   -3.2962 H       1  LIG1        0.0524
     38 H          -0.7928    1.3977   -3.2030 H       1  LIG1        0.0524
     39 H          -2.7692   -0.0911    3.8794 H       1  LIG1        0.0618
     40 H          -0.0992   -4.2901   -0.9328 H       1  LIG1        0.0618
     41 H          -4.8067    2.8914    1.5551 H       1  LIG1        0.0618
     42 H          -4.2772   -3.5249   -1.5603 H       1  LIG1        0.0618
     43 H          -4.4623    1.7191    3.7175 H       1  LIG1        0.0618
     44 H          -2.3863   -5.1308   -1.4045 H       1  LIG1        0.0618
     45 H           5.7007   -0.3646    0.1683 H       1  LIG1        0.0724
     46 H           4.4008    1.8348   -3.5955 H       1  LIG1        0.0660
     47 H           3.4200    2.4182   -2.2443 H       1  LIG1        0.0660
     48 H           2.9307    0.9481   -3.1763 H       1  LIG1        0.0660
     49 H           4.5084   -1.8837    4.2929 H       1  LIG1        0.0660
     50 H           3.0675   -2.1979    3.3193 H       1  LIG1        0.0660
     51 H           3.4271   -0.5340    3.9278 H       1  LIG1        0.0660
@<TRIPOS>BOND
     1     1     9    1
     2     1    18    1
     3     2    10    1
     4     2    25    1
     5     3    17   ar
     6     4    17   ar
     7     5    26    1
     8     5    29    1
     9     6    27    1
    10     6    30    1
    11     7    25   ar
    12     7    26   ar
    13     8    25   ar
    14     8    27   ar
    15     9    10    1
    16     9    11    1
    17     9    12    1
    18    10    17    1
    19    11    13   ar
    20    11    15   ar
    21    12    14   ar
    22    12    16   ar
    23    13    19   ar
    24    14    20   ar
    25    15    21   ar
    26    16    22   ar
    27    19    23   ar
    28    20    24   ar
    29    21    23   ar
    30    22    24   ar
    31    26    28   ar
    32    27    28   ar
    33    10    31    1
    34    13    32    1
    35    14    33    1
    36    15    34    1
    37    16    35    1
    38    18    36    1
    39    18    37    1
    40    18    38    1
    41    19    39    1
    42    20    40    1
    43    21    41    1
    44    22    42    1
    45    23    43    1
    46    24    44    1
    47    28    45    1
    48    29    46    1
    49    29    47    1
    50    29    48    1
    51    30    49    1
    52    30    50    1
    53    30    51    1
@<TRIPOS>MOLECULE
177236
 51 53 0 0 0
SMALL
GASTEIGER

@<TRIPOS>ATOM
      1 O          -2.2576    0.7865   -1.8401 O.3     1  LIG1       -0.3632
      2 O           0.6073   -0.0079    0.5157 O.3     1  LIG1       -0.4494
      3 O           0.1706    2.6574    0.6994 O.co2   1  LIG1       -0.5459
      4 O           0.1871    2.8010   -1.5718 O.co2   1  LIG1       -0.5459
      5 O           4.6935   -1.4256    2.2083 O.3     1  LIG1       -0.4794
      6 O           4.5364    0.6820   -1.9667 O.3     1  LIG1       -0.4794
      7 N           2.6208   -0.6532    1.3887 N.ar    1  LIG1       -0.1594
      8 N           2.5533    0.3931   -0.7390 N.ar    1  LIG1       -0.1594
      9 C          -1.5830    0.1999   -0.6802 C.3     1  LIG1        0.1609
     10 C          -0.0803    0.6395   -0.5925 C.3     1  LIG1        0.1791
     11 C          -2.3870    0.6500    0.5736 C.ar    1  LIG1       -0.0075
     12 C          -1.8145   -1.3436   -0.8725 C.ar    1  LIG1       -0.0075
     13 C          -2.1794    0.0400    1.8257 C.ar    1  LIG1       -0.0554
     14 C          -0.8021   -2.3119   -0.7723 C.ar    1  LIG1       -0.0554
     15 C          -3.3539    1.6704    0.5002 C.ar    1  LIG1       -0.0554
     16 C          -3.1159   -1.8056   -1.1760 C.ar    1  LIG1       -0.0554
     17 C           0.0774    2.1794   -0.4701 C.2     1  LIG1        0.0856
     18 C          -1.6281    0.6280   -3.1034 C.3     1  LIG1        0.0382
     19 C          -2.9171    0.4224    2.9496 C.ar    1  LIG1       -0.0614
     20 C          -1.0758   -3.6728   -0.9518 C.ar    1  LIG1       -0.0614
     21 C          -4.0965    2.0482    1.6225 C.ar    1  LIG1       -0.0614
     22 C          -3.3869   -3.1619   -1.3728 C.ar    1  LIG1       -0.0614
     23 C          -3.8800    1.4223    2.8466 C.ar    1  LIG1       -0.0617
     24 C          -2.3652   -4.0973   -1.2556 C.ar    1  LIG1       -0.0617
     25 C           1.9805   -0.0213    0.3960 C.ar    1  LIG1        0.3249
     26 C           3.9483   -0.7789    1.2366 C.ar    1  LIG1        0.2240
     27 C           3.8806    0.2590   -0.8253 C.ar    1  LIG1        0.2240
     28 C           4.6459   -0.3313    0.1436 C.ar    1  LIG1        0.0617
     29 C           3.8925   -1.9100    3.2823 C.3     1  LIG1        0.0804
     30 C           3.6686    1.3778   -2.8641 C.3     1  LIG1        0.0804
     31 H           0.3916    0.3218   -1.5315 H       1  LIG1        0.0834
     32 H          -1.4231   -0.7336    1.9362 H       1  LIG1        0.0621
     33 H           0.2236   -2.0415   -0.5504 H       1  LIG1        0.0621
     34 H          -3.5224    2.1954   -0.4377 H       1  LIG1        0.0621
     35 H          -3.9286   -1.0860   -1.2691 H       1  LIG1        0.0621
     36 H          -2.3568    0.9024   -3.8720 H       1  LIG1        0.0524
     37 H          -1.3205   -0.4046   -3.2881 H       1  LIG1        0.0524
     38 H          -0.7737    1.2949   -3.2180 H       1  LIG1        0.0524
     39 H          -2.7221   -0.0521    3.9062 H       1  LIG1        0.0618
     40 H          -0.2716   -4.3969   -0.8525 H       1  LIG1        0.0618
     41 H          -4.8270    2.8467    1.5372 H       1  LIG1        0.0618
     42 H          -4.3964   -3.4796   -1.6152 H       1  LIG1        0.0618
     43 H          -4.4428    1.7294    3.7219 H       1  LIG1        0.0618
     44 H          -2.5712   -5.1532   -1.4001 H       1  LIG1        0.0618
     45 H           5.7133   -0.4493    0.0461 H       1  LIG1        0.0724
     46 H           4.5570   -2.4151    3.9900 H       1  LIG1        0.0660
     47 H           3.1620   -2.6479    2.9316 H       1  LIG1        0.0660
     48 H           3.4009   -1.0886    3.8147 H       1  LIG1        0.0660
     49 H           4.2692    1.7006   -3.7201 H       1  LIG1        0.0660
     50 H           3.2448    2.2729   -2.3962 H       1  LIG1        0.0660
     51 H           2.8811    0.7176   -3.2450 H       1  LIG1        0.0660
@<TRIPOS>BOND
     1     1     9    1
     2     1    18    1
     3     2    10    1
     4     2    25    1
     5     3    17   ar
     6     4    17   ar
     7     5    26    1
     8     5    29    1
     9     6    27    1
    10     6    30    1
    11     7    25   ar
    12     7    26   ar
    13     8    25   ar
    14     8    27   ar
    15     9    10    1
    16     9    11    1
    17     9    12    1
    18    10    17    1
    19    11    13   ar
    20    11    15   ar
    21    12    14   ar
    22    12    16   ar
    23    13    19   ar
    24    14    20   ar
    25    15    21   ar
    26    16    22   ar
    27    19    23   ar
    28    20    24   ar
    29    21    23   ar
    30    22    24   ar
    31    26    28   ar
    32    27    28   ar
    33    10    31    1
    34    13    32    1
    35    14    33    1
    36    15    34    1
    37    16    35    1
    38    18    36    1
    39    18    37    1
    40    18    38    1
    41    19    39    1
    42    20    40    1
    43    21    41    1
    44    22    42    1
    45    23    43    1
    46    24    44    1
    47    28    45    1
    48    29    46    1
    49    29    47    1
    50    29    48    1
    51    30    49    1
    52    30    50    1
    53    30    51    1
@<TRIPOS>MOLECULE
177236
 51 53 0 0 0
SMALL
GASTEIGER

@<TRIPOS>ATOM
      1 O          -2.2961    0.8057   -1.8349 O.3     1  LIG1       -0.3632
      2 O           0.5540    0.0383    0.5512 O.3     1  LIG1       -0.4494
      3 O           0.4537    2.6874    0.6586 O.co2   1  LIG1       -0.5459
      4 O          -0.1312    2.8897   -1.5235 O.co2   1  LIG1       -0.5459
      5 O           4.3791   -0.6192   -2.0701 O.3     1  LIG1       -0.4794
      6 O           4.7443   -0.1721    2.5726 O.3     1  LIG1       -0.4794
      7 N           2.4441   -0.2233   -0.7928 N.ar    1  LIG1       -0.1594
      8 N           2.6152   -0.0271    1.5684 N.ar    1  LIG1       -0.1594
      9 C          -1.5965    0.2257   -0.6900 C.3     1  LIG1        0.1609
     10 C          -0.1051    0.6916   -0.5761 C.3     1  LIG1        0.1791
     11 C          -2.3875    0.6803    0.5691 C.ar    1  LIG1       -0.0075
     12 C          -1.7978   -1.3181   -0.9027 C.ar    1  LIG1       -0.0075
     13 C          -3.0997    1.8939    0.5726 C.ar    1  LIG1       -0.0554
     14 C          -0.7546   -2.2580   -0.8838 C.ar    1  LIG1       -0.0554
     15 C          -2.3909   -0.0826    1.7526 C.ar    1  LIG1       -0.0554
     16 C          -3.0994   -1.8094   -1.1544 C.ar    1  LIG1       -0.0554
     17 C           0.0571    2.2343   -0.4541 C.2     1  LIG1        0.0856
     18 C          -1.6778    0.6663   -3.1060 C.3     1  LIG1        0.0382
     19 C          -3.8138    2.3104    1.6988 C.ar    1  LIG1       -0.0614
     20 C          -0.9987   -3.6218   -1.0813 C.ar    1  LIG1       -0.0614
     21 C          -3.1108    0.3308    2.8770 C.ar    1  LIG1       -0.0614
     22 C          -3.3425   -3.1686   -1.3684 C.ar    1  LIG1       -0.0614
     23 C          -3.8261    1.5249    2.8481 C.ar    1  LIG1       -0.0617
     24 C          -2.2906   -4.0766   -1.3254 C.ar    1  LIG1       -0.0617
     25 C           1.9273    0.0156    0.4233 C.ar    1  LIG1        0.3249
     26 C           3.7716   -0.3813   -0.8490 C.ar    1  LIG1        0.2240
     27 C           3.9436   -0.1693    1.4429 C.ar    1  LIG1        0.2240
     28 C           4.5878   -0.3628    0.2481 C.ar    1  LIG1        0.0617
     29 C           3.4618   -0.5529   -3.1604 C.3     1  LIG1        0.0804
     30 C           4.0421    0.2641    3.7337 C.3     1  LIG1        0.0804
     31 H           0.3866    0.4029   -1.5131 H       1  LIG1        0.0834
     32 H          -3.0744    2.5389   -0.3051 H       1  LIG1        0.0621
     33 H           0.2742   -1.9600   -0.7164 H       1  LIG1        0.0621
     34 H          -1.8164   -1.0043    1.8098 H       1  LIG1        0.0621
     35 H          -3.9340   -1.1096   -1.1932 H       1  LIG1        0.0621
     36 H          -2.3909    1.0134   -3.8596 H       1  LIG1        0.0524
     37 H          -1.4346   -0.3749   -3.3333 H       1  LIG1        0.0524
     38 H          -0.7821    1.2802   -3.2013 H       1  LIG1        0.0524
     39 H          -4.3382    3.2608    1.6773 H       1  LIG1        0.0618
     40 H          -0.1698   -4.3236   -1.0442 H       1  LIG1        0.0618
     41 H          -3.0930   -0.2736    3.7784 H       1  LIG1        0.0618
     42 H          -4.3537   -3.5099   -1.5674 H       1  LIG1        0.0618
     43 H          -4.3696    1.8564    3.7268 H       1  LIG1        0.0618
     44 H          -2.4742   -5.1348   -1.4841 H       1  LIG1        0.0618
     45 H           5.6560   -0.4958    0.1797 H       1  LIG1        0.0724
     46 H           4.0261   -0.7295   -4.0815 H       1  LIG1        0.0660
     47 H           3.0018    0.4386   -3.2358 H       1  LIG1        0.0660
     48 H           2.6995   -1.3366   -3.0854 H       1  LIG1        0.0660
     49 H           4.7608    0.3062    4.5580 H       1  LIG1        0.0660
     50 H           3.2584   -0.4482    4.0135 H       1  LIG1        0.0660
     51 H           3.6327    1.2716    3.5986 H       1  LIG1        0.0660
@<TRIPOS>BOND
     1     1     9    1
     2     1    18    1
     3     2    10    1
     4     2    25    1
     5     3    17   ar
     6     4    17   ar
     7     5    26    1
     8     5    29    1
     9     6    27    1
    10     6    30    1
    11     7    25   ar
    12     7    26   ar
    13     8    25   ar
    14     8    27   ar
    15     9    10    1
    16     9    11    1
    17     9    12    1
    18    10    17    1
    19    11    13   ar
    20    11    15   ar
    21    12    14   ar
    22    12    16   ar
    23    13    19   ar
    24    14    20   ar
    25    15    21   ar
    26    16    22   ar
    27    19    23   ar
    28    20    24   ar
    29    21    23   ar
    30    22    24   ar
    31    26    28   ar
    32    27    28   ar
    33    10    31    1
    34    13    32    1
    35    14    33    1
    36    15    34    1
    37    16    35    1
    38    18    36    1
    39    18    37    1
    40    18    38    1
    41    19    39    1
    42    20    40    1
    43    21    41    1
    44    22    42    1
    45    23    43    1
    46    24    44    1
    47    28    45    1
    48    29    46    1
    49    29    47    1
    50    29    48    1
    51    30    49    1
    52    30    50    1
    53    30    51    1
@<TRIPOS>MOLECULE
177236
 51 53 0 0 0
SMALL
GASTEIGER

@<TRIPOS>ATOM
      1 O          -2.2576    0.8108   -1.8157 O.3     1  LIG1       -0.3632
      2 O           0.6229    0.0372    0.5262 O.3     1  LIG1       -0.4494
      3 O           0.2203    2.7033    0.7147 O.co2   1  LIG1       -0.5459
      4 O           0.1579    2.8620   -1.5504 O.co2   1  LIG1       -0.5459
      5 O           4.7949   -0.0126    2.5712 O.3     1  LIG1       -0.4794
      6 O           4.3273   -0.8463   -2.0630 O.3     1  LIG1       -0.4794
      7 N           2.6761    0.0906    1.5411 N.ar    1  LIG1       -0.1594
      8 N           2.5144   -0.3044   -0.7984 N.ar    1  LIG1       -0.1594
      9 C          -1.5568    0.2392   -0.6678 C.3     1  LIG1        0.1609
     10 C          -0.0577    0.6935   -0.5830 C.3     1  LIG1        0.1791
     11 C          -2.3535    0.6857    0.5969 C.ar    1  LIG1       -0.0075
     12 C          -1.7571   -1.3066   -0.8606 C.ar    1  LIG1       -0.0075
     13 C          -2.1146    0.0935    1.8517 C.ar    1  LIG1       -0.0554
     14 C          -0.6974   -2.2120   -1.0378 C.ar    1  LIG1       -0.0554
     15 C          -3.3512    1.6766    0.5256 C.ar    1  LIG1       -0.0554
     16 C          -3.0678   -1.8304   -0.9223 C.ar    1  LIG1       -0.0554
     17 C           0.0860    2.2311   -0.4519 C.2     1  LIG1        0.0856
     18 C          -1.6544    0.6534   -3.0908 C.3     1  LIG1        0.0382
     19 C          -2.8480    0.4679    2.9816 C.ar    1  LIG1       -0.0614
     20 C          -0.9319   -3.5774   -1.2336 C.ar    1  LIG1       -0.0614
     21 C          -4.0915    2.0432    1.6533 C.ar    1  LIG1       -0.0614
     22 C          -3.3033   -3.1931   -1.1229 C.ar    1  LIG1       -0.0614
     23 C          -3.8408    1.4379    2.8813 C.ar    1  LIG1       -0.0617
     24 C          -2.2324   -4.0683   -1.2744 C.ar    1  LIG1       -0.0617
     25 C           1.9922    0.0318    0.3922 C.ar    1  LIG1        0.3249
     26 C           4.0005   -0.0774    1.4386 C.ar    1  LIG1        0.2240
     27 C           3.8426   -0.4630   -0.8394 C.ar    1  LIG1        0.2240
     28 C           4.6508   -0.3655    0.2655 C.ar    1  LIG1        0.0617
     29 C           4.0577    0.3598    3.7328 C.3     1  LIG1        0.0804
     30 C           5.4338   -0.0575   -2.4854 C.3     1  LIG1        0.0804
     31 H           0.4266    0.4103   -1.5251 H       1  LIG1        0.0834
     32 H          -1.3390   -0.6613    1.9592 H       1  LIG1        0.0621
     33 H           0.3354   -1.8794   -1.0401 H       1  LIG1        0.0621
     34 H          -3.5502    2.1839   -0.4158 H       1  LIG1        0.0621
     35 H          -3.9182   -1.1579   -0.8197 H       1  LIG1        0.0621
     36 H          -2.3606    1.0286   -3.8375 H       1  LIG1        0.0524
     37 H          -1.4548   -0.3955   -3.3233 H       1  LIG1        0.0524
     38 H          -0.7397    1.2381   -3.1902 H       1  LIG1        0.0524
     39 H          -2.6265    0.0088    3.9404 H       1  LIG1        0.0618
     40 H          -0.0880   -4.2504   -1.3602 H       1  LIG1        0.0618
     41 H          -4.8491    2.8171    1.5687 H       1  LIG1        0.0618
     42 H          -4.3233   -3.5630   -1.1643 H       1  LIG1        0.0618
     43 H          -4.4016    1.7371    3.7604 H       1  LIG1        0.0618
     44 H          -2.4102   -5.1276   -1.4311 H       1  LIG1        0.0618
     45 H           5.7143   -0.5364    0.2394 H       1  LIG1        0.0724
     46 H           4.7633    0.4173    4.5670 H       1  LIG1        0.0660
     47 H           3.3081   -0.3988    3.9856 H       1  LIG1        0.0660
     48 H           3.5990    1.3477    3.6158 H       1  LIG1        0.0660
     49 H           5.5254   -0.1642   -3.5714 H       1  LIG1        0.0660
     50 H           6.3593   -0.4312   -2.0374 H       1  LIG1        0.0660
     51 H           5.2975    1.0061   -2.2615 H       1  LIG1        0.0660
@<TRIPOS>BOND
     1     1     9    1
     2     1    18    1
     3     2    10    1
     4     2    25    1
     5     3    17   ar
     6     4    17   ar
     7     5    26    1
     8     5    29    1
     9     6    27    1
    10     6    30    1
    11     7    25   ar
    12     7    26   ar
    13     8    25   ar
    14     8    27   ar
    15     9    10    1
    16     9    11    1
    17     9    12    1
    18    10    17    1
    19    11    13   ar
    20    11    15   ar
    21    12    14   ar
    22    12    16   ar
    23    13    19   ar
    24    14    20   ar
    25    15    21   ar
    26    16    22   ar
    27    19    23   ar
    28    20    24   ar
    29    21    23   ar
    30    22    24   ar
    31    26    28   ar
    32    27    28   ar
    33    10    31    1
    34    13    32    1
    35    14    33    1
    36    15    34    1
    37    16    35    1
    38    18    36    1
    39    18    37    1
    40    18    38    1
    41    19    39    1
    42    20    40    1
    43    21    41    1
    44    22    42    1
    45    23    43    1
    46    24    44    1
    47    28    45    1
    48    29    46    1
    49    29    47    1
    50    29    48    1
    51    30    49    1
    52    30    50    1
    53    30    51    1
@<TRIPOS>MOLECULE
177236
 51 53 0 0 0
SMALL
GASTEIGER

@<TRIPOS>ATOM
      1 O          -2.2386    0.8593   -1.8061 O.3     1  LIG1       -0.3632
      2 O           0.6181    0.1240    0.5842 O.3     1  LIG1       -0.4494
      3 O          -0.1071    2.8165    0.5785 O.co2   1  LIG1       -0.5459
      4 O           0.5190    2.7545   -1.6062 O.co2   1  LIG1       -0.5459
      5 O           4.4254   -0.3739   -2.1042 O.3     1  LIG1       -0.4794
      6 O           4.8307   -0.1103    2.5489 O.3     1  LIG1       -0.4794
      7 N           2.4992   -0.0889   -0.7887 N.ar    1  LIG1       -0.1594
      8 N           2.6908    0.0589    1.5710 N.ar    1  LIG1       -0.1594
      9 C          -1.5775    0.2522   -0.6452 C.3     1  LIG1        0.1609
     10 C          -0.0747    0.6955   -0.5610 C.3     1  LIG1        0.1791
     11 C          -2.4047    0.6692    0.6040 C.ar    1  LIG1       -0.0075
     12 C          -1.7908   -1.2928   -0.8558 C.ar    1  LIG1       -0.0075
     13 C          -2.1482    0.1028    1.8675 C.ar    1  LIG1       -0.0554
     14 C          -3.0407   -1.7588   -1.3238 C.ar    1  LIG1       -0.0554
     15 C          -3.4505    1.6080    0.5169 C.ar    1  LIG1       -0.0554
     16 C          -0.8084   -2.2626   -0.5962 C.ar    1  LIG1       -0.0554
     17 C           0.1002    2.2344   -0.5235 C.2     1  LIG1        0.0856
     18 C          -1.5976    0.7226   -3.0668 C.3     1  LIG1        0.0382
     19 C          -2.9038    0.4570    2.9896 C.ar    1  LIG1       -0.0614
     20 C          -3.2820   -3.1167   -1.5496 C.ar    1  LIG1       -0.0614
     21 C          -4.2117    1.9561    1.6365 C.ar    1  LIG1       -0.0614
     22 C          -1.0542   -3.6249   -0.8032 C.ar    1  LIG1       -0.0614
     23 C          -3.9390    1.3804    2.8725 C.ar    1  LIG1       -0.0617
     24 C          -2.2867   -4.0511   -1.2873 C.ar    1  LIG1       -0.0617
     25 C           1.9886    0.1088    0.4328 C.ar    1  LIG1        0.3249
     26 C           3.8276   -0.2089   -0.8679 C.ar    1  LIG1        0.2240
     27 C           4.0174   -0.0780    1.4294 C.ar    1  LIG1        0.2240
     28 C           4.6542   -0.2269    0.2222 C.ar    1  LIG1        0.0617
     29 C           3.5378   -0.0523   -3.1764 C.3     1  LIG1        0.0804
     30 C           4.1288    0.2344    3.7414 C.3     1  LIG1        0.0804
     31 H           0.3930    0.3323   -1.4849 H       1  LIG1        0.0834
     32 H          -1.3393   -0.6125    1.9917 H       1  LIG1        0.0621
     33 H          -3.8363   -1.0423   -1.5277 H       1  LIG1        0.0621
     34 H          -3.6687    2.0957   -0.4307 H       1  LIG1        0.0621
     35 H           0.1724   -1.9924   -0.2219 H       1  LIG1        0.0621
     36 H          -2.3310    0.9743   -3.8383 H       1  LIG1        0.0524
     37 H          -1.2521   -0.2979   -3.2523 H       1  LIG1        0.0524
     38 H          -0.7691    1.4218   -3.1738 H       1  LIG1        0.0524
     39 H          -2.6664    0.0206    3.9550 H       1  LIG1        0.0618
     40 H          -4.2478   -3.4366   -1.9274 H       1  LIG1        0.0618
     41 H          -5.0015    2.6945    1.5387 H       1  LIG1        0.0618
     42 H          -0.2740   -4.3478   -0.5832 H       1  LIG1        0.0618
     43 H          -4.5148    1.6664    3.7467 H       1  LIG1        0.0618
     44 H          -2.4703   -5.1081   -1.4546 H       1  LIG1        0.0618
     45 H           5.7223   -0.3438    0.1391 H       1  LIG1        0.0724
     46 H           4.1024   -0.1367   -4.1099 H       1  LIG1        0.0660
     47 H           3.1750    0.9786   -3.0976 H       1  LIG1        0.0660
     48 H           2.7046   -0.7617   -3.2292 H       1  LIG1        0.0660
     49 H           4.8540    0.2432    4.5605 H       1  LIG1        0.0660
     50 H           3.3662   -0.5148    3.9817 H       1  LIG1        0.0660
     51 H           3.6926    1.2364    3.6721 H       1  LIG1        0.0660
@<TRIPOS>BOND
     1     1     9    1
     2     1    18    1
     3     2    10    1
     4     2    25    1
     5     3    17   ar
     6     4    17   ar
     7     5    26    1
     8     5    29    1
     9     6    27    1
    10     6    30    1
    11     7    25   ar
    12     7    26   ar
    13     8    25   ar
    14     8    27   ar
    15     9    10    1
    16     9    11    1
    17     9    12    1
    18    10    17    1
    19    11    13   ar
    20    11    15   ar
    21    12    14   ar
    22    12    16   ar
    23    13    19   ar
    24    14    20   ar
    25    15    21   ar
    26    16    22   ar
    27    19    23   ar
    28    20    24   ar
    29    21    23   ar
    30    22    24   ar
    31    26    28   ar
    32    27    28   ar
    33    10    31    1
    34    13    32    1
    35    14    33    1
    36    15    34    1
    37    16    35    1
    38    18    36    1
    39    18    37    1
    40    18    38    1
    41    19    39    1
    42    20    40    1
    43    21    41    1
    44    22    42    1
    45    23    43    1
    46    24    44    1
    47    28    45    1
    48    29    46    1
    49    29    47    1
    50    29    48    1
    51    30    49    1
    52    30    50    1
    53    30    51    1
@<TRIPOS>MOLECULE
177236
 51 53 0 0 0
SMALL
GASTEIGER

@<TRIPOS>ATOM
      1 O          -2.2291    0.8051   -1.8301 O.3     1  LIG1       -0.3632
      2 O           0.6030    0.0364    0.5788 O.3     1  LIG1       -0.4494
      3 O           0.0141    2.7293    0.6210 O.co2   1  LIG1       -0.5459
      4 O           0.4565    2.7129   -1.6082 O.co2   1  LIG1       -0.5459
      5 O           4.3766   -0.9167   -2.0248 O.3     1  LIG1       -0.4794
      6 O           4.8293    0.0249    2.5336 O.3     1  LIG1       -0.4794
      7 N           2.4642   -0.3845   -0.7611 N.ar    1  LIG1       -0.1594
      8 N           2.6826    0.0871    1.5563 N.ar    1  LIG1       -0.1594
      9 C          -1.5706    0.2105   -0.6641 C.3     1  LIG1        0.1609
     10 C          -0.0654    0.6369   -0.5679 C.3     1  LIG1        0.1791
     11 C          -2.3870    0.6585    0.5821 C.ar    1  LIG1       -0.0075
     12 C          -1.8063   -1.3312   -0.8615 C.ar    1  LIG1       -0.0075
     13 C          -2.1917    0.0461    1.8351 C.ar    1  LIG1       -0.0554
     14 C          -3.1074   -1.7906   -1.1691 C.ar    1  LIG1       -0.0554
     15 C          -3.3579    1.6744    0.5003 C.ar    1  LIG1       -0.0554
     16 C          -0.7945   -2.3001   -0.7630 C.ar    1  LIG1       -0.0554
     17 C           0.1184    2.1740   -0.5092 C.2     1  LIG1        0.0856
     18 C          -1.5939    0.6377   -3.0894 C.3     1  LIG1        0.0382
     19 C          -2.9427    0.4235    2.9519 C.ar    1  LIG1       -0.0614
     20 C          -3.3786   -3.1461   -1.3711 C.ar    1  LIG1       -0.0614
     21 C          -4.1139    2.0472    1.6153 C.ar    1  LIG1       -0.0614
     22 C          -1.0677   -3.6597   -0.9505 C.ar    1  LIG1       -0.0614
     23 C          -3.9079    1.4201    2.8405 C.ar    1  LIG1       -0.0617
     24 C          -2.3570   -4.0824   -1.2575 C.ar    1  LIG1       -0.0617
     25 C           1.9722   -0.0039    0.4267 C.ar    1  LIG1        0.3249
     26 C           3.7913   -0.5414   -0.8293 C.ar    1  LIG1        0.2240
     27 C           4.0069   -0.0791    1.4242 C.ar    1  LIG1        0.2240
     28 C           4.6297   -0.3954    0.2440 C.ar    1  LIG1        0.0617
     29 C           3.4335   -1.0067   -3.0912 C.3     1  LIG1        0.0804
     30 C           4.1204    0.4259    3.7033 C.3     1  LIG1        0.0804
     31 H           0.4127    0.2912   -1.4928 H       1  LIG1        0.0834
     32 H          -1.4352   -0.7262    1.9520 H       1  LIG1        0.0621
     33 H          -3.9193   -1.0699   -1.2604 H       1  LIG1        0.0621
     34 H          -3.5188    2.2006   -0.4381 H       1  LIG1        0.0621
     35 H           0.2303   -2.0287   -0.5379 H       1  LIG1        0.0621
     36 H          -2.3168    0.9141   -3.8628 H       1  LIG1        0.0524
     37 H          -1.2910   -0.3970   -3.2698 H       1  LIG1        0.0524
     38 H          -0.7364    1.3008   -3.2003 H       1  LIG1        0.0524
     39 H          -2.7565   -0.0527    3.9094 H       1  LIG1        0.0618
     40 H          -4.3881   -3.4626   -1.6151 H       1  LIG1        0.0618
     41 H          -4.8464    2.8432    1.5236 H       1  LIG1        0.0618
     42 H          -0.2634   -4.3841   -0.8548 H       1  LIG1        0.0618
     43 H          -4.4813    1.7235    3.7103 H       1  LIG1        0.0618
     44 H          -2.5633   -5.1375   -1.4070 H       1  LIG1        0.0618
     45 H           5.6960   -0.5352    0.1692 H       1  LIG1        0.0724
     46 H           3.9811   -1.2867   -3.9964 H       1  LIG1        0.0660
     47 H           2.9485   -0.0426   -3.2792 H       1  LIG1        0.0660
     48 H           2.6921   -1.7905   -2.8983 H       1  LIG1        0.0660
     49 H           4.8467    0.5077    4.5178 H       1  LIG1        0.0660
     50 H           3.3799   -0.3272    3.9955 H       1  LIG1        0.0660
     51 H           3.6557    1.4093    3.5715 H       1  LIG1        0.0660
@<TRIPOS>BOND
     1     1     9    1
     2     1    18    1
     3     2    10    1
     4     2    25    1
     5     3    17   ar
     6     4    17   ar
     7     5    26    1
     8     5    29    1
     9     6    27    1
    10     6    30    1
    11     7    25   ar
    12     7    26   ar
    13     8    25   ar
    14     8    27   ar
    15     9    10    1
    16     9    11    1
    17     9    12    1
    18    10    17    1
    19    11    13   ar
    20    11    15   ar
    21    12    14   ar
    22    12    16   ar
    23    13    19   ar
    24    14    20   ar
    25    15    21   ar
    26    16    22   ar
    27    19    23   ar
    28    20    24   ar
    29    21    23   ar
    30    22    24   ar
    31    26    28   ar
    32    27    28   ar
    33    10    31    1
    34    13    32    1
    35    14    33    1
    36    15    34    1
    37    16    35    1
    38    18    36    1
    39    18    37    1
    40    18    38    1
    41    19    39    1
    42    20    40    1
    43    21    41    1
    44    22    42    1
    45    23    43    1
    46    24    44    1
    47    28    45    1
    48    29    46    1
    49    29    47    1
    50    29    48    1
    51    30    49    1
    52    30    50    1
    53    30    51    1
@<TRIPOS>MOLECULE
177236
 51 53 0 0 0
SMALL
GASTEIGER

@<TRIPOS>ATOM
      1 O          -2.2388    0.8266   -1.8198 O.3     1  LIG1       -0.3632
      2 O           0.5744   -0.0085    0.5878 O.3     1  LIG1       -0.4494
      3 O           0.1976    2.6794    0.6719 O.co2   1  LIG1       -0.5459
      4 O           0.3234    2.7364   -1.5952 O.co2   1  LIG1       -0.5459
      5 O           4.3736   -0.9268   -1.9881 O.3     1  LIG1       -0.4794
      6 O           4.7843   -0.0378    2.5858 O.3     1  LIG1       -0.4794
      7 N           2.4506   -0.4123   -0.7351 N.ar    1  LIG1       -0.1594
      8 N           2.6456    0.0215    1.5922 N.ar    1  LIG1       -0.1594
      9 C          -1.5709    0.2053   -0.6753 C.3     1  LIG1        0.1609
     10 C          -0.0670    0.6244   -0.5600 C.3     1  LIG1        0.1791
     11 C          -2.3691    0.6591    0.5790 C.ar    1  LIG1       -0.0075
     12 C          -1.8080   -1.3314   -0.9066 C.ar    1  LIG1       -0.0075
     13 C          -2.3963   -0.1150    1.7549 C.ar    1  LIG1       -0.0554
     14 C          -3.1137   -1.7872   -1.1990 C.ar    1  LIG1       -0.0554
     15 C          -3.0740    1.8772    0.5850 C.ar    1  LIG1       -0.0554
     16 C          -0.7908   -2.2990   -0.8549 C.ar    1  LIG1       -0.0554
     17 C           0.1382    2.1602   -0.4790 C.2     1  LIG1        0.0856
     18 C          -1.6290    0.6633   -3.0924 C.3     1  LIG1        0.0382
     19 C          -3.1305    0.2922    2.8726 C.ar    1  LIG1       -0.0614
     20 C          -3.3843   -3.1390   -1.4271 C.ar    1  LIG1       -0.0614
     21 C          -3.8016    2.2884    1.7050 C.ar    1  LIG1       -0.0614
     22 C          -1.0633   -3.6548   -1.0685 C.ar    1  LIG1       -0.0614
     23 C          -3.8365    1.4916    2.8457 C.ar    1  LIG1       -0.0617
     24 C          -2.3576   -4.0742   -1.3566 C.ar    1  LIG1       -0.0617
     25 C           1.9461   -0.0520    0.4548 C.ar    1  LIG1        0.3249
     26 C           3.7784   -0.5686   -0.7920 C.ar    1  LIG1        0.2240
     27 C           3.9719   -0.1347    1.4682 C.ar    1  LIG1        0.2240
     28 C           4.6059   -0.4343    0.2900 C.ar    1  LIG1        0.0617
     29 C           3.4360   -1.0252   -3.0586 C.3     1  LIG1        0.0804
     30 C           4.0700    0.3859    3.7439 C.3     1  LIG1        0.0804
     31 H           0.4188    0.2897   -1.4854 H       1  LIG1        0.0834
     32 H          -1.8305   -1.0420    1.8113 H       1  LIG1        0.0621
     33 H          -3.9285   -1.0662   -1.2572 H       1  LIG1        0.0621
     34 H          -3.0304    2.5328   -0.2832 H       1  LIG1        0.0621
     35 H           0.2380   -2.0293   -0.6464 H       1  LIG1        0.0621
     36 H          -2.3290    1.0406   -3.8439 H       1  LIG1        0.0524
     37 H          -1.4284   -0.3861   -3.3232 H       1  LIG1        0.0524
     38 H          -0.7112    1.2423   -3.1872 H       1  LIG1        0.0524
     39 H          -3.1311   -0.3215    3.7679 H       1  LIG1        0.0618
     40 H          -4.3974   -3.4537   -1.6580 H       1  LIG1        0.0618
     41 H          -4.3163    3.2439    1.6858 H       1  LIG1        0.0618
     42 H          -0.2545   -4.3781   -1.0071 H       1  LIG1        0.0618
     43 H          -4.3899    1.8192    3.7198 H       1  LIG1        0.0618
     44 H          -2.5638   -5.1266   -1.5263 H       1  LIG1        0.0618
     45 H           5.6740   -0.5689    0.2231 H       1  LIG1        0.0724
     46 H           3.9901   -1.2967   -3.9624 H       1  LIG1        0.0660
     47 H           2.9402   -0.0662   -3.2467 H       1  LIG1        0.0660
     48 H           2.7028   -1.8180   -2.8707 H       1  LIG1        0.0660
     49 H           4.7912    0.4748    4.5622 H       1  LIG1        0.0660
     50 H           3.3223   -0.3575    4.0414 H       1  LIG1        0.0660
     51 H           3.6135    1.3705    3.5942 H       1  LIG1        0.0660
@<TRIPOS>BOND
     1     1     9    1
     2     1    18    1
     3     2    10    1
     4     2    25    1
     5     3    17   ar
     6     4    17   ar
     7     5    26    1
     8     5    29    1
     9     6    27    1
    10     6    30    1
    11     7    25   ar
    12     7    26   ar
    13     8    25   ar
    14     8    27   ar
    15     9    10    1
    16     9    11    1
    17     9    12    1
    18    10    17    1
    19    11    13   ar
    20    11    15   ar
    21    12    14   ar
    22    12    16   ar
    23    13    19   ar
    24    14    20   ar
    25    15    21   ar
    26    16    22   ar
    27    19    23   ar
    28    20    24   ar
    29    21    23   ar
    30    22    24   ar
    31    26    28   ar
    32    27    28   ar
    33    10    31    1
    34    13    32    1
    35    14    33    1
    36    15    34    1
    37    16    35    1
    38    18    36    1
    39    18    37    1
    40    18    38    1
    41    19    39    1
    42    20    40    1
    43    21    41    1
    44    22    42    1
    45    23    43    1
    46    24    44    1
    47    28    45    1
    48    29    46    1
    49    29    47    1
    50    29    48    1
    51    30    49    1
    52    30    50    1
    53    30    51    1
@<TRIPOS>MOLECULE
177236
 51 53 0 0 0
SMALL
GASTEIGER

@<TRIPOS>ATOM
      1 O          -2.2324    0.8271   -1.8156 O.3     1  LIG1       -0.3632
      2 O           0.5802   -0.0106    0.5925 O.3     1  LIG1       -0.4494
      3 O           0.1890    2.6786    0.6786 O.co2   1  LIG1       -0.5459
      4 O           0.3389    2.7359   -1.5849 O.co2   1  LIG1       -0.5459
      5 O           4.3787   -0.9250   -1.9866 O.3     1  LIG1       -0.4794
      6 O           4.7928   -0.0320    2.5865 O.3     1  LIG1       -0.4794
      7 N           2.4560   -0.4136   -0.7316 N.ar    1  LIG1       -0.1594
      8 N           2.6526    0.0229    1.5950 N.ar    1  LIG1       -0.1594
      9 C          -1.5657    0.2046   -0.6709 C.3     1  LIG1        0.1609
     10 C          -0.0620    0.6231   -0.5545 C.3     1  LIG1        0.1791
     11 C          -2.3658    0.6559    0.5832 C.ar    1  LIG1       -0.0075
     12 C          -1.8028   -1.3318   -0.9044 C.ar    1  LIG1       -0.0075
     13 C          -3.0771    1.8702    0.5884 C.ar    1  LIG1       -0.0554
     14 C          -3.1081   -1.7870   -1.1998 C.ar    1  LIG1       -0.0554
     15 C          -2.3888   -0.1176    1.7596 C.ar    1  LIG1       -0.0554
     16 C          -0.7861   -2.2999   -0.8519 C.ar    1  LIG1       -0.0554
     17 C           0.1425    2.1591   -0.4711 C.2     1  LIG1        0.0856
     18 C          -1.6198    0.6669   -3.0872 C.3     1  LIG1        0.0382
     19 C          -3.8066    2.2783    1.7080 C.ar    1  LIG1       -0.0614
     20 C          -3.3788   -3.1382   -1.4297 C.ar    1  LIG1       -0.0614
     21 C          -3.1247    0.2867    2.8772 C.ar    1  LIG1       -0.0614
     22 C          -1.0587   -3.6553   -1.0673 C.ar    1  LIG1       -0.0614
     23 C          -3.8373    1.4824    2.8494 C.ar    1  LIG1       -0.0617
     24 C          -2.3527   -4.0742   -1.3586 C.ar    1  LIG1       -0.0617
     25 C           1.9520   -0.0528    0.4586 C.ar    1  LIG1        0.3249
     26 C           3.7837   -0.5673   -0.7897 C.ar    1  LIG1        0.2240
     27 C           3.9790   -0.1314    1.4706 C.ar    1  LIG1        0.2240
     28 C           4.6126   -0.4311    0.2910 C.ar    1  LIG1        0.0617
     29 C           3.4402   -1.0238   -3.0562 C.3     1  LIG1        0.0804
     30 C           4.0790    0.3921    3.7448 C.3     1  LIG1        0.0804
     31 H           0.4242    0.2905   -1.4804 H       1  LIG1        0.0834
     32 H          -3.0371    2.5254   -0.2804 H       1  LIG1        0.0621
     33 H          -3.9227   -1.0658   -1.2581 H       1  LIG1        0.0621
     34 H          -1.8181   -1.0415    1.8164 H       1  LIG1        0.0621
     35 H           0.2425   -2.0306   -0.6414 H       1  LIG1        0.0621
     36 H          -2.3214    1.0388   -3.8400 H       1  LIG1        0.0524
     37 H          -1.4112   -0.3811   -3.3171 H       1  LIG1        0.0524
     38 H          -0.7062    1.2528   -3.1809 H       1  LIG1        0.0524
     39 H          -4.3265    3.2311    1.6883 H       1  LIG1        0.0618
     40 H          -4.3918   -3.4525   -1.6625 H       1  LIG1        0.0618
     41 H          -3.1217   -0.3261    3.7731 H       1  LIG1        0.0618
     42 H          -0.2503   -4.3788   -1.0058 H       1  LIG1        0.0618
     43 H          -4.3920    1.8077    3.7234 H       1  LIG1        0.0618
     44 H          -2.5588   -5.1261   -1.5300 H       1  LIG1        0.0618
     45 H           5.6807   -0.5638    0.2232 H       1  LIG1        0.0724
     46 H           3.9941   -1.2944   -3.9603 H       1  LIG1        0.0660
     47 H           2.9432   -0.0654   -3.2434 H       1  LIG1        0.0660
     48 H           2.7080   -1.8175   -2.8681 H       1  LIG1        0.0660
     49 H           4.8008    0.4832    4.5624 H       1  LIG1        0.0660
     50 H           3.3326   -0.3521    4.0440 H       1  LIG1        0.0660
     51 H           3.6209    1.3758    3.5941 H       1  LIG1        0.0660
@<TRIPOS>BOND
     1     1     9    1
     2     1    18    1
     3     2    10    1
     4     2    25    1
     5     3    17   ar
     6     4    17   ar
     7     5    26    1
     8     5    29    1
     9     6    27    1
    10     6    30    1
    11     7    25   ar
    12     7    26   ar
    13     8    25   ar
    14     8    27   ar
    15     9    10    1
    16     9    11    1
    17     9    12    1
    18    10    17    1
    19    11    13   ar
    20    11    15   ar
    21    12    14   ar
    22    12    16   ar
    23    13    19   ar
    24    14    20   ar
    25    15    21   ar
    26    16    22   ar
    27    19    23   ar
    28    20    24   ar
    29    21    23   ar
    30    22    24   ar
    31    26    28   ar
    32    27    28   ar
    33    10    31    1
    34    13    32    1
    35    14    33    1
    36    15    34    1
    37    16    35    1
    38    18    36    1
    39    18    37    1
    40    18    38    1
    41    19    39    1
    42    20    40    1
    43    21    41    1
    44    22    42    1
    45    23    43    1
    46    24    44    1
    47    28    45    1
    48    29    46    1
    49    29    47    1
    50    29    48    1
    51    30    49    1
    52    30    50    1
    53    30    51    1
@<TRIPOS>MOLECULE
177236
 51 53 0 0 0
SMALL
GASTEIGER

@<TRIPOS>ATOM
      1 O          -2.2374    0.8172   -1.8426 O.3     1  LIG1       -0.3632
      2 O           0.6088    0.0612    0.5450 O.3     1  LIG1       -0.4494
      3 O           0.1367    2.7274    0.6879 O.co2   1  LIG1       -0.5459
      4 O           0.2089    2.8400   -1.5817 O.co2   1  LIG1       -0.5459
      5 O           4.6880   -1.2249    2.3566 O.3     1  LIG1       -0.4794
      6 O           4.5802    0.8647   -1.8311 O.3     1  LIG1       -0.4794
      7 N           2.6165   -0.5255    1.4733 N.ar    1  LIG1       -0.1594
      8 N           2.5745    0.5062   -0.6629 N.ar    1  LIG1       -0.1594
      9 C          -1.5669    0.2367   -0.6772 C.3     1  LIG1        0.1609
     10 C          -0.0678    0.6893   -0.5798 C.3     1  LIG1        0.1791
     11 C          -2.3834    0.6796    0.5712 C.ar    1  LIG1       -0.0075
     12 C          -1.7822   -1.3089   -0.8685 C.ar    1  LIG1       -0.0075
     13 C          -2.1809    0.0696    1.8241 C.ar    1  LIG1       -0.0554
     14 C          -0.7633   -2.2680   -0.7461 C.ar    1  LIG1       -0.0554
     15 C          -3.3569    1.6933    0.4920 C.ar    1  LIG1       -0.0554
     16 C          -3.0746   -1.7840   -1.1914 C.ar    1  LIG1       -0.0554
     17 C           0.0751    2.2321   -0.4763 C.2     1  LIG1        0.0856
     18 C          -1.6002    0.6574   -3.1018 C.3     1  LIG1        0.0382
     19 C          -2.9280    0.4461    2.9440 C.ar    1  LIG1       -0.0614
     20 C          -1.0229   -3.6322   -0.9255 C.ar    1  LIG1       -0.0614
     21 C          -4.1092    2.0653    1.6105 C.ar    1  LIG1       -0.0614
     22 C          -3.3308   -3.1426   -1.3884 C.ar    1  LIG1       -0.0614
     23 C          -3.8963    1.4401    2.8354 C.ar    1  LIG1       -0.0617
     24 C          -2.3026   -4.0686   -1.2500 C.ar    1  LIG1       -0.0617
     25 C           1.9845    0.0792    0.4583 C.ar    1  LIG1        0.3249
     26 C           3.9500   -0.6163    1.3551 C.ar    1  LIG1        0.2240
     27 C           3.9071    0.4093   -0.7135 C.ar    1  LIG1        0.2240
     28 C           4.6618   -0.1672    0.2720 C.ar    1  LIG1        0.0617
     29 C           3.8965   -1.5606    3.4929 C.3     1  LIG1        0.0804
     30 C           3.7455    1.6648   -2.6721 C.3     1  LIG1        0.0804
     31 H           0.4188    0.3625   -1.5073 H       1  LIG1        0.0834
     32 H          -1.4207   -0.6999    1.9393 H       1  LIG1        0.0621
     33 H           0.2548   -1.9881   -0.5063 H       1  LIG1        0.0621
     34 H          -3.5228    2.2176   -0.4462 H       1  LIG1        0.0621
     35 H          -3.8923   -1.0711   -1.3003 H       1  LIG1        0.0621
     36 H          -2.3234    0.9334   -3.8751 H       1  LIG1        0.0524
     37 H          -1.2935   -0.3757   -3.2846 H       1  LIG1        0.0524
     38 H          -0.7432    1.3220   -3.2116 H       1  LIG1        0.0524
     39 H          -2.7362   -0.0280    3.9010 H       1  LIG1        0.0618
     40 H          -0.2138   -4.3493   -0.8092 H       1  LIG1        0.0618
     41 H          -4.8441    2.8589    1.5209 H       1  LIG1        0.0618
     42 H          -4.3326   -3.4701   -1.6460 H       1  LIG1        0.0618
     43 H          -4.4664    1.7431    3.7074 H       1  LIG1        0.0618
     44 H          -2.4973   -5.1274   -1.3943 H       1  LIG1        0.0618
     45 H           5.7338   -0.2578    0.2017 H       1  LIG1        0.0724
     46 H           4.5612   -2.0048    4.2400 H       1  LIG1        0.0660
     47 H           3.1354   -2.3074    3.2411 H       1  LIG1        0.0660
     48 H           3.4433   -0.6683    3.9393 H       1  LIG1        0.0660
     49 H           4.3657    2.0370   -3.4940 H       1  LIG1        0.0660
     50 H           3.3515    2.5328   -2.1323 H       1  LIG1        0.0660
     51 H           2.9377    1.0694   -3.1118 H       1  LIG1        0.0660
@<TRIPOS>BOND
     1     1     9    1
     2     1    18    1
     3     2    10    1
     4     2    25    1
     5     3    17   ar
     6     4    17   ar
     7     5    26    1
     8     5    29    1
     9     6    27    1
    10     6    30    1
    11     7    25   ar
    12     7    26   ar
    13     8    25   ar
    14     8    27   ar
    15     9    10    1
    16     9    11    1
    17     9    12    1
    18    10    17    1
    19    11    13   ar
    20    11    15   ar
    21    12    14   ar
    22    12    16   ar
    23    13    19   ar
    24    14    20   ar
    25    15    21   ar
    26    16    22   ar
    27    19    23   ar
    28    20    24   ar
    29    21    23   ar
    30    22    24   ar
    31    26    28   ar
    32    27    28   ar
    33    10    31    1
    34    13    32    1
    35    14    33    1
    36    15    34    1
    37    16    35    1
    38    18    36    1
    39    18    37    1
    40    18    38    1
    41    19    39    1
    42    20    40    1
    43    21    41    1
    44    22    42    1
    45    23    43    1
    46    24    44    1
    47    28    45    1
    48    29    46    1
    49    29    47    1
    50    29    48    1
    51    30    49    1
    52    30    50    1
    53    30    51    1
@<TRIPOS>MOLECULE
177236
 51 53 0 0 0
SMALL
GASTEIGER

@<TRIPOS>ATOM
      1 O          -2.2503    0.8498   -1.8053 O.3     1  LIG1       -0.3632
      2 O           0.5986    0.1024    0.5913 O.3     1  LIG1       -0.4494
      3 O          -0.1187    2.8058    0.5696 O.co2   1  LIG1       -0.5459
      4 O           0.5582    2.7170   -1.5991 O.co2   1  LIG1       -0.5459
      5 O           4.3714   -0.6656   -2.0771 O.3     1  LIG1       -0.4794
      6 O           4.8288   -0.0165    2.5325 O.3     1  LIG1       -0.4794
      7 N           2.4604   -0.2429   -0.7750 N.ar    1  LIG1       -0.1594
      8 N           2.6791    0.0978    1.5652 N.ar    1  LIG1       -0.1594
      9 C          -1.5884    0.2439   -0.6452 C.3     1  LIG1        0.1609
     10 C          -0.0845    0.6788   -0.5589 C.3     1  LIG1        0.1791
     11 C          -2.4107    0.6648    0.6061 C.ar    1  LIG1       -0.0075
     12 C          -1.8102   -1.2991   -0.8572 C.ar    1  LIG1       -0.0075
     13 C          -2.1773    0.0713    1.8618 C.ar    1  LIG1       -0.0554
     14 C          -3.0850   -1.7607   -1.2597 C.ar    1  LIG1       -0.0554
     15 C          -3.4312    1.6317    0.5269 C.ar    1  LIG1       -0.0554
     16 C          -0.8129   -2.2692   -0.6680 C.ar    1  LIG1       -0.0554
     17 C           0.1031    2.2159   -0.5248 C.2     1  LIG1        0.0856
     18 C          -1.6082    0.7126   -3.0648 C.3     1  LIG1        0.0382
     19 C          -2.9339    0.4231    2.9837 C.ar    1  LIG1       -0.0614
     20 C          -3.3400   -3.1170   -1.4790 C.ar    1  LIG1       -0.0614
     21 C          -4.1932    1.9781    1.6464 C.ar    1  LIG1       -0.0614
     22 C          -1.0719   -3.6299   -0.8707 C.ar    1  LIG1       -0.0614
     23 C          -3.9451    1.3727    2.8745 C.ar    1  LIG1       -0.0617
     24 C          -2.3319   -4.0527   -1.2816 C.ar    1  LIG1       -0.0617
     25 C           1.9678    0.0653    0.4324 C.ar    1  LIG1        0.3249
     26 C           3.7885   -0.3814   -0.8568 C.ar    1  LIG1        0.2240
     27 C           4.0051   -0.0598    1.4202 C.ar    1  LIG1        0.2240
     28 C           4.6265   -0.3047    0.2226 C.ar    1  LIG1        0.0617
     29 C           3.4451   -0.5637   -3.1589 C.3     1  LIG1        0.0804
     30 C           4.1267    0.3356    3.7206 C.3     1  LIG1        0.0804
     31 H           0.3849    0.3144   -1.4817 H       1  LIG1        0.0834
     32 H          -1.3872   -0.6663    1.9779 H       1  LIG1        0.0621
     33 H          -3.8893   -1.0406   -1.4135 H       1  LIG1        0.0621
     34 H          -3.6276    2.1413   -0.4135 H       1  LIG1        0.0621
     35 H           0.1882   -2.0002   -0.3551 H       1  LIG1        0.0621
     36 H          -2.3440    0.9529   -3.8384 H       1  LIG1        0.0524
     37 H          -1.2521   -0.3051   -3.2454 H       1  LIG1        0.0524
     38 H          -0.7872    1.4207   -3.1740 H       1  LIG1        0.0524
     39 H          -2.7164   -0.0362    3.9422 H       1  LIG1        0.0618
     40 H          -4.3269   -3.4333   -1.8010 H       1  LIG1        0.0618
     41 H          -4.9638    2.7373    1.5555 H       1  LIG1        0.0618
     42 H          -0.2789   -4.3548   -0.7050 H       1  LIG1        0.0618
     43 H          -4.5235    1.6565    3.7480 H       1  LIG1        0.0618
     44 H          -2.5260   -5.1082   -1.4436 H       1  LIG1        0.0618
     45 H           5.6936   -0.4347    0.1376 H       1  LIG1        0.0724
     46 H           3.9952   -0.7487   -4.0862 H       1  LIG1        0.0660
     47 H           3.0122    0.4403   -3.2223 H       1  LIG1        0.0660
     48 H           2.6617   -1.3278   -3.0817 H       1  LIG1        0.0660
     49 H           4.8568    0.3791    4.5351 H       1  LIG1        0.0660
     50 H           3.3843   -0.4257    3.9819 H       1  LIG1        0.0660
     51 H           3.6666    1.3260    3.6332 H       1  LIG1        0.0660
@<TRIPOS>BOND
     1     1     9    1
     2     1    18    1
     3     2    10    1
     4     2    25    1
     5     3    17   ar
     6     4    17   ar
     7     5    26    1
     8     5    29    1
     9     6    27    1
    10     6    30    1
    11     7    25   ar
    12     7    26   ar
    13     8    25   ar
    14     8    27   ar
    15     9    10    1
    16     9    11    1
    17     9    12    1
    18    10    17    1
    19    11    13   ar
    20    11    15   ar
    21    12    14   ar
    22    12    16   ar
    23    13    19   ar
    24    14    20   ar
    25    15    21   ar
    26    16    22   ar
    27    19    23   ar
    28    20    24   ar
    29    21    23   ar
    30    22    24   ar
    31    26    28   ar
    32    27    28   ar
    33    10    31    1
    34    13    32    1
    35    14    33    1
    36    15    34    1
    37    16    35    1
    38    18    36    1
    39    18    37    1
    40    18    38    1
    41    19    39    1
    42    20    40    1
    43    21    41    1
    44    22    42    1
    45    23    43    1
    46    24    44    1
    47    28    45    1
    48    29    46    1
    49    29    47    1
    50    29    48    1
    51    30    49    1
    52    30    50    1
    53    30    51    1
@<TRIPOS>MOLECULE
177236
 51 53 0 0 0
SMALL
GASTEIGER

@<TRIPOS>ATOM
      1 O          -2.2718    0.7878   -1.8473 O.3     1  LIG1       -0.3632
      2 O           0.5928    0.0694    0.5379 O.3     1  LIG1       -0.4494
      3 O           0.2312    2.7815   -1.6542 O.co2   1  LIG1       -0.5459
      4 O           0.1031    2.7389    0.6149 O.co2   1  LIG1       -0.5459
      5 O           4.4007   -0.5685   -2.1153 O.3     1  LIG1       -0.4794
      6 O           4.8055   -0.0498    2.5157 O.3     1  LIG1       -0.4794
      7 N           2.4721   -0.1905   -0.8232 N.ar    1  LIG1       -0.1594
      8 N           2.6652    0.0641    1.5300 N.ar    1  LIG1       -0.1594
      9 C          -1.5928    0.2172   -0.6820 C.3     1  LIG1        0.1609
     10 C          -0.0943    0.6687   -0.5992 C.3     1  LIG1        0.1791
     11 C          -2.4001    0.6731    0.5671 C.ar    1  LIG1       -0.0075
     12 C          -1.8080   -1.3296   -0.8587 C.ar    1  LIG1       -0.0075
     13 C          -2.1943    0.0701    1.8230 C.ar    1  LIG1       -0.0554
     14 C          -3.1059   -1.8110   -1.1461 C.ar    1  LIG1       -0.0554
     15 C          -3.3693    1.6904    0.4858 C.ar    1  LIG1       -0.0554
     16 C          -0.7805   -2.2825   -0.7649 C.ar    1  LIG1       -0.0554
     17 C           0.0598    2.2106   -0.5322 C.2     1  LIG1        0.0856
     18 C          -1.6533    0.6060   -3.1130 C.3     1  LIG1        0.0382
     19 C          -2.9361    0.4560    2.9429 C.ar    1  LIG1       -0.0614
     20 C          -3.3593   -3.1718   -1.3334 C.ar    1  LIG1       -0.0614
     21 C          -4.1161    2.0718    1.6042 C.ar    1  LIG1       -0.0614
     22 C          -1.0362   -3.6479   -0.9352 C.ar    1  LIG1       -0.0614
     23 C          -3.9013    1.4525    2.8320 C.ar    1  LIG1       -0.0617
     24 C          -2.3229   -4.0920   -1.2230 C.ar    1  LIG1       -0.0617
     25 C           1.9635    0.0658    0.3910 C.ar    1  LIG1        0.3249
     26 C           3.8019   -0.3217   -0.8934 C.ar    1  LIG1        0.2240
     27 C           3.9929   -0.0691    1.3946 C.ar    1  LIG1        0.2240
     28 C           4.6291   -0.2709    0.1961 C.ar    1  LIG1        0.0617
     29 C           3.4763   -0.5001   -3.1997 C.3     1  LIG1        0.0804
     30 C           4.0938    0.3084    3.6977 C.3     1  LIG1        0.0804
     31 H           0.3806    0.3350   -1.5298 H       1  LIG1        0.0834
     32 H          -1.4368   -0.7015    1.9393 H       1  LIG1        0.0621
     33 H          -3.9289   -1.1029   -1.2357 H       1  LIG1        0.0621
     34 H          -3.5370    2.2098   -0.4554 H       1  LIG1        0.0621
     35 H           0.2438   -1.9941   -0.5576 H       1  LIG1        0.0621
     36 H          -2.3787    0.8958   -3.8791 H       1  LIG1        0.0524
     37 H          -1.3757   -0.4357   -3.2941 H       1  LIG1        0.0524
     38 H          -0.7813    1.2476   -3.2374 H       1  LIG1        0.0524
     39 H          -2.7427   -0.0137    3.9021 H       1  LIG1        0.0618
     40 H          -4.3663   -3.5054   -1.5638 H       1  LIG1        0.0618
     41 H          -4.8486    2.8676    1.5127 H       1  LIG1        0.0618
     42 H          -0.2203   -4.3596   -0.8427 H       1  LIG1        0.0618
     43 H          -4.4679    1.7622    3.7041 H       1  LIG1        0.0618
     44 H          -2.5150   -5.1515   -1.3607 H       1  LIG1        0.0618
     45 H           5.6984   -0.3891    0.1190 H       1  LIG1        0.0724
     46 H           4.0355   -0.6736   -4.1247 H       1  LIG1        0.0660
     47 H           3.0146    0.4913   -3.2699 H       1  LIG1        0.0660
     48 H           2.7157   -1.2853   -3.1222 H       1  LIG1        0.0660
     49 H           4.8156    0.3445    4.5196 H       1  LIG1        0.0660
     50 H           3.3412   -0.4465    3.9515 H       1  LIG1        0.0660
     51 H           3.6433    1.3031    3.6068 H       1  LIG1        0.0660
@<TRIPOS>BOND
     1     1     9    1
     2     1    18    1
     3     2    10    1
     4     2    25    1
     5     3    17   ar
     6     4    17   ar
     7     5    26    1
     8     5    29    1
     9     6    27    1
    10     6    30    1
    11     7    25   ar
    12     7    26   ar
    13     8    25   ar
    14     8    27   ar
    15     9    10    1
    16     9    11    1
    17     9    12    1
    18    10    17    1
    19    11    13   ar
    20    11    15   ar
    21    12    14   ar
    22    12    16   ar
    23    13    19   ar
    24    14    20   ar
    25    15    21   ar
    26    16    22   ar
    27    19    23   ar
    28    20    24   ar
    29    21    23   ar
    30    22    24   ar
    31    26    28   ar
    32    27    28   ar
    33    10    31    1
    34    13    32    1
    35    14    33    1
    36    15    34    1
    37    16    35    1
    38    18    36    1
    39    18    37    1
    40    18    38    1
    41    19    39    1
    42    20    40    1
    43    21    41    1
    44    22    42    1
    45    23    43    1
    46    24    44    1
    47    28    45    1
    48    29    46    1
    49    29    47    1
    50    29    48    1
    51    30    49    1
    52    30    50    1
    53    30    51    1
@<TRIPOS>MOLECULE
177236
 51 53 0 0 0
SMALL
GASTEIGER

@<TRIPOS>ATOM
      1 O          -2.2399    0.8045   -1.8599 O.3     1  LIG1       -0.3632
      2 O           0.6103    0.0583    0.5273 O.3     1  LIG1       -0.4494
      3 O           0.2053    2.8119   -1.6365 O.co2   1  LIG1       -0.5459
      4 O           0.1491    2.7264    0.6352 O.co2   1  LIG1       -0.5459
      5 O           4.5822    0.8756   -1.8423 O.3     1  LIG1       -0.4794
      6 O           4.6926   -1.1837    2.3608 O.3     1  LIG1       -0.4794
      7 N           2.5758    0.5054   -0.6800 N.ar    1  LIG1       -0.1594
      8 N           2.6185   -0.5088    1.4645 N.ar    1  LIG1       -0.1594
      9 C          -1.5688    0.2263   -0.6936 C.3     1  LIG1        0.1609
     10 C          -0.0684    0.6738   -0.6052 C.3     1  LIG1        0.1791
     11 C          -2.3813    0.6771    0.5553 C.ar    1  LIG1       -0.0075
     12 C          -1.7897   -1.3203   -0.8739 C.ar    1  LIG1       -0.0075
     13 C          -2.1652    0.0835    1.8142 C.ar    1  LIG1       -0.0554
     14 C          -0.7773   -2.2828   -0.7300 C.ar    1  LIG1       -0.0554
     15 C          -3.3669    1.6785    0.4708 C.ar    1  LIG1       -0.0554
     16 C          -3.0807   -1.7917   -1.2071 C.ar    1  LIG1       -0.0554
     17 C           0.0784    2.2170   -0.5200 C.2     1  LIG1        0.0856
     18 C          -1.6143    0.6254   -3.1225 C.3     1  LIG1        0.0382
     19 C          -2.9094    0.4648    2.9341 C.ar    1  LIG1       -0.0614
     20 C          -1.0408   -3.6471   -0.9012 C.ar    1  LIG1       -0.0614
     21 C          -4.1169    2.0550    1.5893 C.ar    1  LIG1       -0.0614
     22 C          -3.3405   -3.1509   -1.3970 C.ar    1  LIG1       -0.0614
     23 C          -3.8896    1.4466    2.8203 C.ar    1  LIG1       -0.0617
     24 C          -2.3206   -4.0814   -1.2394 C.ar    1  LIG1       -0.0617
     25 C           1.9849    0.0828    0.4431 C.ar    1  LIG1        0.3249
     26 C           3.9084    0.4207   -0.7237 C.ar    1  LIG1        0.2240
     27 C           3.9527   -0.5893    1.3528 C.ar    1  LIG1        0.2240
     28 C           4.6656   -0.1412    0.2686 C.ar    1  LIG1        0.0617
     29 C           3.7436    1.6649   -2.6891 C.3     1  LIG1        0.0804
     30 C           3.8994   -1.5214    3.4955 C.3     1  LIG1        0.0804
     31 H           0.4166    0.3326   -1.5278 H       1  LIG1        0.0834
     32 H          -1.3976   -0.6770    1.9337 H       1  LIG1        0.0621
     33 H           0.2390   -2.0059   -0.4780 H       1  LIG1        0.0621
     34 H          -3.5454    2.1895   -0.4724 H       1  LIG1        0.0621
     35 H          -3.8938   -1.0762   -1.3308 H       1  LIG1        0.0621
     36 H          -2.3301    0.9313   -3.8912 H       1  LIG1        0.0524
     37 H          -1.3498   -0.4186   -3.3097 H       1  LIG1        0.0524
     38 H          -0.7320    1.2551   -3.2361 H       1  LIG1        0.0524
     39 H          -2.7066    0.0035    3.8956 H       1  LIG1        0.0618
     40 H          -0.2372   -4.3674   -0.7687 H       1  LIG1        0.0618
     41 H          -4.8620    2.8382    1.4951 H       1  LIG1        0.0618
     42 H          -4.3406   -3.4754   -1.6647 H       1  LIG1        0.0618
     43 H          -4.4582    1.7527    3.6922 H       1  LIG1        0.0618
     44 H          -2.5167   -5.1388   -1.3779 H       1  LIG1        0.0618
     45 H           5.7383   -0.2222    0.2035 H       1  LIG1        0.0724
     46 H           4.3632    2.0380   -3.5109 H       1  LIG1        0.0660
     47 H           3.3410    2.5324   -2.1545 H       1  LIG1        0.0660
     48 H           2.9418    1.0609   -3.1285 H       1  LIG1        0.0660
     49 H           4.5652   -1.9557    4.2478 H       1  LIG1        0.0660
     50 H           3.1465   -2.2761    3.2445 H       1  LIG1        0.0660
     51 H           3.4365   -0.6311    3.9359 H       1  LIG1        0.0660
@<TRIPOS>BOND
     1     1     9    1
     2     1    18    1
     3     2    10    1
     4     2    25    1
     5     3    17   ar
     6     4    17   ar
     7     5    26    1
     8     5    29    1
     9     6    27    1
    10     6    30    1
    11     7    25   ar
    12     7    26   ar
    13     8    25   ar
    14     8    27   ar
    15     9    10    1
    16     9    11    1
    17     9    12    1
    18    10    17    1
    19    11    13   ar
    20    11    15   ar
    21    12    14   ar
    22    12    16   ar
    23    13    19   ar
    24    14    20   ar
    25    15    21   ar
    26    16    22   ar
    27    19    23   ar
    28    20    24   ar
    29    21    23   ar
    30    22    24   ar
    31    26    28   ar
    32    27    28   ar
    33    10    31    1
    34    13    32    1
    35    14    33    1
    36    15    34    1
    37    16    35    1
    38    18    36    1
    39    18    37    1
    40    18    38    1
    41    19    39    1
    42    20    40    1
    43    21    41    1
    44    22    42    1
    45    23    43    1
    46    24    44    1
    47    28    45    1
    48    29    46    1
    49    29    47    1
    50    29    48    1
    51    30    49    1
    52    30    50    1
    53    30    51    1
@<TRIPOS>MOLECULE
177236
 51 53 0 0 0
SMALL
GASTEIGER

@<TRIPOS>ATOM
      1 O          -2.2633    0.8194   -1.8176 O.3     1  LIG1       -0.3632
      2 O           0.5879   -0.0050    0.5460 O.3     1  LIG1       -0.4494
      3 O           0.2273    2.6640    0.7061 O.co2   1  LIG1       -0.5459
      4 O           0.1718    2.8059   -1.5627 O.co2   1  LIG1       -0.5459
      5 O           4.6714   -1.4403    2.2410 O.3     1  LIG1       -0.4794
      6 O           4.5225    0.6721   -1.9315 O.3     1  LIG1       -0.4794
      7 N           2.6003   -0.6617    1.4221 N.ar    1  LIG1       -0.1594
      8 N           2.5398    0.3892   -0.7028 N.ar    1  LIG1       -0.1594
      9 C          -1.5817    0.2016   -0.6778 C.3     1  LIG1        0.1609
     10 C          -0.0824    0.6435   -0.5738 C.3     1  LIG1        0.1791
     11 C          -2.3802    0.6459    0.5792 C.ar    1  LIG1       -0.0075
     12 C          -1.8019   -1.3395   -0.9102 C.ar    1  LIG1       -0.0075
     13 C          -3.0739    1.8709    0.5953 C.ar    1  LIG1       -0.0554
     14 C          -3.0814   -1.7991   -1.2982 C.ar    1  LIG1       -0.0554
     15 C          -2.4152   -0.1365    1.7490 C.ar    1  LIG1       -0.0554
     16 C          -0.7994   -2.3114   -0.7517 C.ar    1  LIG1       -0.0554
     17 C           0.0955    2.1849   -0.4567 C.2     1  LIG1        0.0856
     18 C          -1.6506    0.6789   -3.0917 C.3     1  LIG1        0.0382
     19 C          -3.7972    2.2812    1.7181 C.ar    1  LIG1       -0.0614
     20 C          -3.3362   -3.1532   -1.5316 C.ar    1  LIG1       -0.0614
     21 C          -3.1461    0.2696    2.8697 C.ar    1  LIG1       -0.0614
     22 C          -1.0591   -3.6704   -0.9636 C.ar    1  LIG1       -0.0614
     23 C          -3.8403    1.4763    2.8525 C.ar    1  LIG1       -0.0617
     24 C          -2.3239   -4.0906   -1.3597 C.ar    1  LIG1       -0.0617
     25 C           1.9632   -0.0243    0.4313 C.ar    1  LIG1        0.3249
     26 C           3.9282   -0.7879    1.2714 C.ar    1  LIG1        0.2240
     27 C           3.8664    0.2536   -0.7885 C.ar    1  LIG1        0.2240
     28 C           4.6295   -0.3353    0.1823 C.ar    1  LIG1        0.0617
     29 C           3.8612   -1.9851    3.2784 C.3     1  LIG1        0.0804
     30 C           3.6468    1.3302   -2.8495 C.3     1  LIG1        0.0804
     31 H           0.3953    0.3188   -1.5077 H       1  LIG1        0.0834
     32 H          -3.0232    2.5333   -0.2679 H       1  LIG1        0.0621
     33 H          -3.8885   -1.0793   -1.4306 H       1  LIG1        0.0621
     34 H          -1.8578   -1.0685    1.8006 H       1  LIG1        0.0621
     35 H           0.2075   -2.0471   -0.4518 H       1  LIG1        0.0621
     36 H          -2.3630    1.0375   -3.8407 H       1  LIG1        0.0524
     37 H          -1.4180   -0.3632   -3.3258 H       1  LIG1        0.0524
     38 H          -0.7507    1.2855   -3.1864 H       1  LIG1        0.0524
     39 H          -4.3018    3.2423    1.7062 H       1  LIG1        0.0618
     40 H          -4.3268   -3.4684   -1.8454 H       1  LIG1        0.0618
     41 H          -3.1530   -0.3505    3.7606 H       1  LIG1        0.0618
     42 H          -0.2632   -4.3953   -0.8153 H       1  LIG1        0.0618
     43 H          -4.3900    1.8028    3.7293 H       1  LIG1        0.0618
     44 H          -2.5186   -5.1446   -1.5313 H       1  LIG1        0.0618
     45 H           5.6969   -0.4536    0.0871 H       1  LIG1        0.0724
     46 H           4.5241   -2.4991    3.9813 H       1  LIG1        0.0660
     47 H           3.1589   -2.7282    2.8835 H       1  LIG1        0.0660
     48 H           3.3361   -1.1981    3.8302 H       1  LIG1        0.0660
     49 H           4.2449    1.6405   -3.7119 H       1  LIG1        0.0660
     50 H           3.2060    2.2297   -2.4064 H       1  LIG1        0.0660
     51 H           2.8718    0.6473   -3.2161 H       1  LIG1        0.0660
@<TRIPOS>BOND
     1     1     9    1
     2     1    18    1
     3     2    10    1
     4     2    25    1
     5     3    17   ar
     6     4    17   ar
     7     5    26    1
     8     5    29    1
     9     6    27    1
    10     6    30    1
    11     7    25   ar
    12     7    26   ar
    13     8    25   ar
    14     8    27   ar
    15     9    10    1
    16     9    11    1
    17     9    12    1
    18    10    17    1
    19    11    13   ar
    20    11    15   ar
    21    12    14   ar
    22    12    16   ar
    23    13    19   ar
    24    14    20   ar
    25    15    21   ar
    26    16    22   ar
    27    19    23   ar
    28    20    24   ar
    29    21    23   ar
    30    22    24   ar
    31    26    28   ar
    32    27    28   ar
    33    10    31    1
    34    13    32    1
    35    14    33    1
    36    15    34    1
    37    16    35    1
    38    18    36    1
    39    18    37    1
    40    18    38    1
    41    19    39    1
    42    20    40    1
    43    21    41    1
    44    22    42    1
    45    23    43    1
    46    24    44    1
    47    28    45    1
    48    29    46    1
    49    29    47    1
    50    29    48    1
    51    30    49    1
    52    30    50    1
    53    30    51    1
@<TRIPOS>MOLECULE
177236
 51 53 0 0 0
SMALL
GASTEIGER

@<TRIPOS>ATOM
      1 O          -2.3003    0.7427   -1.8579 O.3     1  LIG1       -0.3632
      2 O           0.5672    0.1654    0.5696 O.3     1  LIG1       -0.4494
      3 O           0.9744    2.7661    0.2435 O.co2   1  LIG1       -0.5459
      4 O          -0.7482    3.0215   -1.2006 O.co2   1  LIG1       -0.5459
      5 O           4.3144   -0.6900   -2.1201 O.3     1  LIG1       -0.4794
      6 O           4.7874   -0.1770    2.5057 O.3     1  LIG1       -0.4794
      7 N           2.4154   -0.2108   -0.8148 N.ar    1  LIG1       -0.1594
      8 N           2.6435    0.0260    1.5405 N.ar    1  LIG1       -0.1594
      9 C          -1.5943    0.2366   -0.6805 C.3     1  LIG1        0.1609
     10 C          -0.1199    0.7759   -0.5660 C.3     1  LIG1        0.1791
     11 C          -2.4139    0.6718    0.5693 C.ar    1  LIG1       -0.0075
     12 C          -1.7536   -1.3184   -0.8529 C.ar    1  LIG1       -0.0075
     13 C          -2.2123    0.0611    1.8224 C.ar    1  LIG1       -0.0554
     14 C          -0.7207   -2.2498   -0.6695 C.ar    1  LIG1       -0.0554
     15 C          -3.3724    1.6979    0.4927 C.ar    1  LIG1       -0.0554
     16 C          -3.0181   -1.8349   -1.2248 C.ar    1  LIG1       -0.0554
     17 C           0.0217    2.3305   -0.4723 C.2     1  LIG1        0.0856
     18 C          -1.6036    0.6941   -3.0935 C.3     1  LIG1        0.0382
     19 C          -2.9503    0.4479    2.9445 C.ar    1  LIG1       -0.0614
     20 C          -0.9364   -3.6229   -0.8418 C.ar    1  LIG1       -0.0614
     21 C          -4.1177    2.0786    1.6122 C.ar    1  LIG1       -0.0614
     22 C          -3.2299   -3.2020   -1.4204 C.ar    1  LIG1       -0.0614
     23 C          -3.9081    1.4520    2.8376 C.ar    1  LIG1       -0.0617
     24 C          -2.1868   -4.0982   -1.2235 C.ar    1  LIG1       -0.0617
     25 C           1.9350    0.0791    0.4054 C.ar    1  LIG1        0.3249
     26 C           3.7372   -0.4092   -0.8945 C.ar    1  LIG1        0.2240
     27 C           3.9625   -0.1618    1.3910 C.ar    1  LIG1        0.2240
     28 C           4.5764   -0.3933    0.1867 C.ar    1  LIG1        0.0617
     29 C           3.3812   -0.6128   -3.1954 C.3     1  LIG1        0.0804
     30 C           4.1136    0.2593    3.6822 C.3     1  LIG1        0.0804
     31 H           0.3843    0.4988   -1.4987 H       1  LIG1        0.0834
     32 H          -1.4609   -0.7170    1.9358 H       1  LIG1        0.0621
     33 H           0.2773   -1.9430   -0.3845 H       1  LIG1        0.0621
     34 H          -3.5234    2.2278   -0.4467 H       1  LIG1        0.0621
     35 H          -3.8496   -1.1474   -1.3794 H       1  LIG1        0.0621
     36 H          -2.3217    0.9153   -3.8885 H       1  LIG1        0.0524
     37 H          -1.1823   -0.2964   -3.2863 H       1  LIG1        0.0524
     38 H          -0.8176    1.4497   -3.1480 H       1  LIG1        0.0524
     39 H          -2.7621   -0.0288    3.9015 H       1  LIG1        0.0618
     40 H          -0.1166   -4.3164   -0.6759 H       1  LIG1        0.0618
     41 H          -4.8441    2.8802    1.5225 H       1  LIG1        0.0618
     42 H          -4.2097   -3.5568   -1.7245 H       1  LIG1        0.0618
     43 H          -4.4745    1.7608    3.7102 H       1  LIG1        0.0618
     44 H          -2.3460   -5.1625   -1.3655 H       1  LIG1        0.0618
     45 H           5.6383   -0.5585    0.0992 H       1  LIG1        0.0724
     46 H           3.9253   -0.8161   -4.1229 H       1  LIG1        0.0660
     47 H           2.9470    0.3899   -3.2769 H       1  LIG1        0.0660
     48 H           2.5996   -1.3745   -3.0968 H       1  LIG1        0.0660
     49 H           4.8498    0.2873    4.4915 H       1  LIG1        0.0660
     50 H           3.3285   -0.4471    3.9731 H       1  LIG1        0.0660
     51 H           3.7117    1.2718    3.5640 H       1  LIG1        0.0660
@<TRIPOS>BOND
     1     1     9    1
     2     1    18    1
     3     2    10    1
     4     2    25    1
     5     3    17   ar
     6     4    17   ar
     7     5    26    1
     8     5    29    1
     9     6    27    1
    10     6    30    1
    11     7    25   ar
    12     7    26   ar
    13     8    25   ar
    14     8    27   ar
    15     9    10    1
    16     9    11    1
    17     9    12    1
    18    10    17    1
    19    11    13   ar
    20    11    15   ar
    21    12    14   ar
    22    12    16   ar
    23    13    19   ar
    24    14    20   ar
    25    15    21   ar
    26    16    22   ar
    27    19    23   ar
    28    20    24   ar
    29    21    23   ar
    30    22    24   ar
    31    26    28   ar
    32    27    28   ar
    33    10    31    1
    34    13    32    1
    35    14    33    1
    36    15    34    1
    37    16    35    1
    38    18    36    1
    39    18    37    1
    40    18    38    1
    41    19    39    1
    42    20    40    1
    43    21    41    1
    44    22    42    1
    45    23    43    1
    46    24    44    1
    47    28    45    1
    48    29    46    1
    49    29    47    1
    50    29    48    1
    51    30    49    1
    52    30    50    1
    53    30    51    1
@<TRIPOS>MOLECULE
177236
 51 53 0 0 0
SMALL
GASTEIGER

@<TRIPOS>ATOM
      1 O          -2.2097    0.8389   -1.8592 O.3     1  LIG1       -0.3632
      2 O           0.5852    0.0719    0.5832 O.3     1  LIG1       -0.4494
      3 O           0.0264    2.7451    0.7296 O.co2   1  LIG1       -0.5459
      4 O           0.2304    2.8639   -1.5343 O.co2   1  LIG1       -0.5459
      5 O           4.5478   -2.0514    1.7398 O.3     1  LIG1       -0.4794
      6 O           4.6401    1.5008   -1.3108 O.3     1  LIG1       -0.4794
      7 N           2.5360   -0.9453    1.2015 N.ar    1  LIG1       -0.1594
      8 N           2.5924    0.8193   -0.3822 N.ar    1  LIG1       -0.1594
      9 C          -1.5617    0.2477   -0.6871 C.3     1  LIG1        0.1609
     10 C          -0.0665    0.7063   -0.5533 C.3     1  LIG1        0.1791
     11 C          -2.4056    0.6720    0.5515 C.ar    1  LIG1       -0.0075
     12 C          -1.7741   -1.2961   -0.8965 C.ar    1  LIG1       -0.0075
     13 C          -2.2270    0.0441    1.7998 C.ar    1  LIG1       -0.0554
     14 C          -3.0657   -1.7660   -1.2304 C.ar    1  LIG1       -0.0554
     15 C          -3.3804    1.6835    0.4667 C.ar    1  LIG1       -0.0554
     16 C          -0.7583   -2.2573   -0.7737 C.ar    1  LIG1       -0.0554
     17 C           0.0483    2.2510   -0.4353 C.2     1  LIG1        0.0856
     18 C          -1.5502    0.6853   -3.1079 C.3     1  LIG1        0.0382
     19 C          -2.9985    0.4017    2.9090 C.ar    1  LIG1       -0.0614
     20 C          -3.3243   -3.1237   -1.4335 C.ar    1  LIG1       -0.0614
     21 C          -4.1567    2.0367    1.5743 C.ar    1  LIG1       -0.0614
     22 C          -1.0197   -3.6198   -0.9617 C.ar    1  LIG1       -0.0614
     23 C          -3.9675    1.3941    2.7945 C.ar    1  LIG1       -0.0617
     24 C          -2.2997   -4.0523   -1.2942 C.ar    1  LIG1       -0.0617
     25 C           1.9572    0.0227    0.4779 C.ar    1  LIG1        0.3249
     26 C           3.8655   -1.0607    1.0539 C.ar    1  LIG1        0.2240
     27 C           3.9197    0.6822   -0.4614 C.ar    1  LIG1        0.2240
     28 C           4.6235   -0.2626    0.2355 C.ar    1  LIG1        0.0617
     29 C           3.6844   -2.8805    2.5126 C.3     1  LIG1        0.0804
     30 C           3.8289    2.5315   -1.8831 C.3     1  LIG1        0.0804
     31 H           0.4550    0.3913   -1.4679 H       1  LIG1        0.0834
     32 H          -1.4672   -0.7247    1.9193 H       1  LIG1        0.0621
     33 H          -3.8810   -1.0515   -1.3386 H       1  LIG1        0.0621
     34 H          -3.5271    2.2218   -0.4672 H       1  LIG1        0.0621
     35 H           0.2591   -1.9804   -0.5231 H       1  LIG1        0.0621
     36 H          -2.2488    0.9964   -3.8902 H       1  LIG1        0.0524
     37 H          -1.2712   -0.3533   -3.3037 H       1  LIG1        0.0524
     38 H          -0.6716    1.3250   -3.1877 H       1  LIG1        0.0524
     39 H          -2.8249   -0.0859    3.8631 H       1  LIG1        0.0618
     40 H          -4.3271   -3.4471   -1.6961 H       1  LIG1        0.0618
     41 H          -4.8916    2.8302    1.4816 H       1  LIG1        0.0618
     42 H          -0.2143   -4.3393   -0.8435 H       1  LIG1        0.0618
     43 H          -4.5566    1.6829    3.6587 H       1  LIG1        0.0618
     44 H          -2.4966   -5.1097   -1.4423 H       1  LIG1        0.0618
     45 H           5.6921   -0.3741    0.1402 H       1  LIG1        0.0724
     46 H           4.3016   -3.6456    2.9934 H       1  LIG1        0.0660
     47 H           2.9540   -3.3962    1.8787 H       1  LIG1        0.0660
     48 H           3.1873   -2.3080    3.3032 H       1  LIG1        0.0660
     49 H           4.4805    3.1575   -2.5006 H       1  LIG1        0.0660
     50 H           3.3913    3.1707   -1.1082 H       1  LIG1        0.0660
     51 H           3.0576    2.1102   -2.5372 H       1  LIG1        0.0660
@<TRIPOS>BOND
     1     1     9    1
     2     1    18    1
     3     2    10    1
     4     2    25    1
     5     3    17   ar
     6     4    17   ar
     7     5    26    1
     8     5    29    1
     9     6    27    1
    10     6    30    1
    11     7    25   ar
    12     7    26   ar
    13     8    25   ar
    14     8    27   ar
    15     9    10    1
    16     9    11    1
    17     9    12    1
    18    10    17    1
    19    11    13   ar
    20    11    15   ar
    21    12    14   ar
    22    12    16   ar
    23    13    19   ar
    24    14    20   ar
    25    15    21   ar
    26    16    22   ar
    27    19    23   ar
    28    20    24   ar
    29    21    23   ar
    30    22    24   ar
    31    26    28   ar
    32    27    28   ar
    33    10    31    1
    34    13    32    1
    35    14    33    1
    36    15    34    1
    37    16    35    1
    38    18    36    1
    39    18    37    1
    40    18    38    1
    41    19    39    1
    42    20    40    1
    43    21    41    1
    44    22    42    1
    45    23    43    1
    46    24    44    1
    47    28    45    1
    48    29    46    1
    49    29    47    1
    50    29    48    1
    51    30    49    1
    52    30    50    1
    53    30    51    1
@<TRIPOS>MOLECULE
177236
 51 53 0 0 0
SMALL
GASTEIGER

@<TRIPOS>ATOM
      1 O          -2.2533    0.8160   -1.8258 O.3     1  LIG1       -0.3632
      2 O           0.6013    0.0683    0.5633 O.3     1  LIG1       -0.4494
      3 O           0.0107    2.7531    0.6192 O.co2   1  LIG1       -0.5459
      4 O           0.3942    2.7536   -1.6199 O.co2   1  LIG1       -0.5459
      5 O           4.8256   -0.0200    2.5194 O.3     1  LIG1       -0.4794
      6 O           4.3932   -0.6280   -2.0982 O.3     1  LIG1       -0.4794
      7 N           2.6793    0.0763    1.5451 N.ar    1  LIG1       -0.1594
      8 N           2.4717   -0.2315   -0.8006 N.ar    1  LIG1       -0.1594
      9 C          -1.5847    0.2278   -0.6624 C.3     1  LIG1        0.1609
     10 C          -0.0834    0.6666   -0.5762 C.3     1  LIG1        0.1791
     11 C          -2.3978    0.6722    0.5869 C.ar    1  LIG1       -0.0075
     12 C          -1.8092   -1.3160   -0.8560 C.ar    1  LIG1       -0.0075
     13 C          -2.1891    0.0666    1.8409 C.ar    1  LIG1       -0.0554
     14 C          -3.1054   -1.7849   -1.1705 C.ar    1  LIG1       -0.0554
     15 C          -3.3788    1.6786    0.5074 C.ar    1  LIG1       -0.0554
     16 C          -0.7919   -2.2783   -0.7460 C.ar    1  LIG1       -0.0554
     17 C           0.0895    2.2054   -0.5144 C.2     1  LIG1        0.0856
     18 C          -1.6244    0.6501   -3.0887 C.3     1  LIG1        0.0382
     19 C          -2.9366    0.4418    2.9612 C.ar    1  LIG1       -0.0614
     20 C          -3.3663   -3.1427   -1.3711 C.ar    1  LIG1       -0.0614
     21 C          -4.1310    2.0493    1.6255 C.ar    1  LIG1       -0.0614
     22 C          -1.0554   -3.6406   -0.9306 C.ar    1  LIG1       -0.0614
     23 C          -3.9116    1.4292    2.8518 C.ar    1  LIG1       -0.0617
     24 C          -2.3397   -4.0723   -1.2459 C.ar    1  LIG1       -0.0617
     25 C           1.9718    0.0528    0.4105 C.ar    1  LIG1        0.3249
     26 C           4.0061   -0.0615    1.4042 C.ar    1  LIG1        0.2240
     27 C           3.8017   -0.3601   -0.8769 C.ar    1  LIG1        0.2240
     28 C           4.6348   -0.2871    0.2060 C.ar    1  LIG1        0.0617
     29 C           4.1202    0.3506    3.7008 C.3     1  LIG1        0.0804
     30 C           3.4657   -0.5576   -3.1800 C.3     1  LIG1        0.0804
     31 H           0.3895    0.3239   -1.5051 H       1  LIG1        0.0834
     32 H          -1.4246   -0.6984    1.9563 H       1  LIG1        0.0621
     33 H          -3.9210   -1.0702   -1.2697 H       1  LIG1        0.0621
     34 H          -3.5506    2.1996   -0.4322 H       1  LIG1        0.0621
     35 H           0.2294   -2.0003   -0.5151 H       1  LIG1        0.0621
     36 H          -2.3522    0.9237   -3.8585 H       1  LIG1        0.0524
     37 H          -1.3190   -0.3838   -3.2700 H       1  LIG1        0.0524
     38 H          -0.7694    1.3157   -3.2052 H       1  LIG1        0.0524
     39 H          -2.7400   -0.0292    3.9193 H       1  LIG1        0.0618
     40 H          -4.3718   -3.4664   -1.6214 H       1  LIG1        0.0618
     41 H          -4.8710    2.8380    1.5354 H       1  LIG1        0.0618
     42 H          -0.2481   -4.3592   -0.8262 H       1  LIG1        0.0618
     43 H          -4.4818    1.7309    3.7242 H       1  LIG1        0.0618
     44 H          -2.5383   -5.1290   -1.3943 H       1  LIG1        0.0618
     45 H           5.7042   -0.4055    0.1244 H       1  LIG1        0.0724
     46 H           4.8471    0.4008    4.5179 H       1  LIG1        0.0660
     47 H           3.3725   -0.4042    3.9694 H       1  LIG1        0.0660
     48 H           3.6647    1.3421    3.5996 H       1  LIG1        0.0660
     49 H           4.0207   -0.7387   -4.1060 H       1  LIG1        0.0660
     50 H           3.0107    0.4372   -3.2534 H       1  LIG1        0.0660
     51 H           2.6996   -1.3366   -3.0965 H       1  LIG1        0.0660
@<TRIPOS>BOND
     1     1     9    1
     2     1    18    1
     3     2    10    1
     4     2    25    1
     5     3    17   ar
     6     4    17   ar
     7     5    26    1
     8     5    29    1
     9     6    27    1
    10     6    30    1
    11     7    25   ar
    12     7    26   ar
    13     8    25   ar
    14     8    27   ar
    15     9    10    1
    16     9    11    1
    17     9    12    1
    18    10    17    1
    19    11    13   ar
    20    11    15   ar
    21    12    14   ar
    22    12    16   ar
    23    13    19   ar
    24    14    20   ar
    25    15    21   ar
    26    16    22   ar
    27    19    23   ar
    28    20    24   ar
    29    21    23   ar
    30    22    24   ar
    31    26    28   ar
    32    27    28   ar
    33    10    31    1
    34    13    32    1
    35    14    33    1
    36    15    34    1
    37    16    35    1
    38    18    36    1
    39    18    37    1
    40    18    38    1
    41    19    39    1
    42    20    40    1
    43    21    41    1
    44    22    42    1
    45    23    43    1
    46    24    44    1
    47    28    45    1
    48    29    46    1
    49    29    47    1
    50    29    48    1
    51    30    49    1
    52    30    50    1
    53    30    51    1
@<TRIPOS>MOLECULE
177236
 51 53 0 0 0
SMALL
GASTEIGER

@<TRIPOS>ATOM
      1 O          -2.3640    0.7809   -1.7855 O.3     1  LIG1       -0.3632
      2 O           0.5940    0.0383    0.4615 O.3     1  LIG1       -0.4494
      3 O           0.1269    2.8483   -1.6221 O.co2   1  LIG1       -0.5459
      4 O           0.1761    2.7193    0.6469 O.co2   1  LIG1       -0.5459
      5 O           4.4559   -0.2682   -2.1707 O.3     1  LIG1       -0.4794
      6 O           4.7693   -0.1101    2.4954 O.3     1  LIG1       -0.4794
      7 N           2.4934   -0.0551   -0.8909 N.ar    1  LIG1       -0.1594
      8 N           2.6458    0.0098    1.4805 N.ar    1  LIG1       -0.1594
      9 C          -1.6094    0.2320   -0.6631 C.3     1  LIG1        0.1609
     10 C          -0.1151    0.6986   -0.6283 C.3     1  LIG1        0.1791
     11 C          -2.3617    0.6813    0.6263 C.ar    1  LIG1       -0.0075
     12 C          -1.7821   -1.3194   -0.8453 C.ar    1  LIG1       -0.0075
     13 C          -2.1066    0.0679    1.8684 C.ar    1  LIG1       -0.0554
     14 C          -0.7197   -2.1810   -1.1749 C.ar    1  LIG1       -0.0554
     15 C          -3.3322    1.7007    0.5921 C.ar    1  LIG1       -0.0554
     16 C          -3.0678   -1.8941   -0.7426 C.ar    1  LIG1       -0.0554
     17 C           0.0441    2.2347   -0.5126 C.2     1  LIG1        0.0856
     18 C          -1.7921    0.6642   -3.0781 C.3     1  LIG1        0.0382
     19 C          -2.8069    0.4417    3.0189 C.ar    1  LIG1       -0.0614
     20 C          -0.9250   -3.5524   -1.3598 C.ar    1  LIG1       -0.0614
     21 C          -4.0372    2.0697    1.7413 C.ar    1  LIG1       -0.0614
     22 C          -3.2724   -3.2651   -0.9207 C.ar    1  LIG1       -0.0614
     23 C          -3.7772    1.4375    2.9536 C.ar    1  LIG1       -0.0617
     24 C          -2.1992   -4.0950   -1.2267 C.ar    1  LIG1       -0.0617
     25 C           1.9622    0.0812    0.3319 C.ar    1  LIG1        0.3249
     26 C           3.8284   -0.1456   -0.9442 C.ar    1  LIG1        0.2240
     27 C           3.9780   -0.0751    1.3600 C.ar    1  LIG1        0.2240
     28 C           4.6366   -0.1711    0.1616 C.ar    1  LIG1        0.0617
     29 C           3.5722   -0.0067   -3.2599 C.3     1  LIG1        0.0804
     30 C           4.0412    0.2299    3.6732 C.3     1  LIG1        0.0804
     31 H           0.3395    0.4109   -1.5842 H       1  LIG1        0.0834
     32 H          -1.3459   -0.7057    1.9477 H       1  LIG1        0.0621
     33 H           0.2914   -1.8061   -1.3049 H       1  LIG1        0.0621
     34 H          -3.5360    2.2282   -0.3374 H       1  LIG1        0.0621
     35 H          -3.9236   -1.2586   -0.5197 H       1  LIG1        0.0621
     36 H          -2.5448    0.9902   -3.8024 H       1  LIG1        0.0524
     37 H          -1.5265   -0.3677   -3.3196 H       1  LIG1        0.0524
     38 H          -0.9246    1.3116   -3.2036 H       1  LIG1        0.0524
     39 H          -2.5778   -0.0377    3.9654 H       1  LIG1        0.0618
     40 H          -0.0822   -4.1906   -1.6094 H       1  LIG1        0.0618
     41 H          -4.7739    2.8650    1.6850 H       1  LIG1        0.0618
     42 H          -4.2725   -3.6764   -0.8211 H       1  LIG1        0.0618
     43 H          -4.3125    1.7363    3.8488 H       1  LIG1        0.0618
     44 H          -2.3551   -5.1598   -1.3680 H       1  LIG1        0.0618
     45 H           5.7092   -0.2567    0.0940 H       1  LIG1        0.0724
     46 H           4.1574   -0.0648   -4.1827 H       1  LIG1        0.0660
     47 H           3.1482    1.0016   -3.1960 H       1  LIG1        0.0660
     48 H           2.7827   -0.7642   -3.3211 H       1  LIG1        0.0660
     49 H           4.7511    0.2521    4.5059 H       1  LIG1        0.0660
     50 H           3.2839   -0.5273    3.9035 H       1  LIG1        0.0660
     51 H           3.5933    1.2267    3.5925 H       1  LIG1        0.0660
@<TRIPOS>BOND
     1     1     9    1
     2     1    18    1
     3     2    10    1
     4     2    25    1
     5     3    17   ar
     6     4    17   ar
     7     5    26    1
     8     5    29    1
     9     6    27    1
    10     6    30    1
    11     7    25   ar
    12     7    26   ar
    13     8    25   ar
    14     8    27   ar
    15     9    10    1
    16     9    11    1
    17     9    12    1
    18    10    17    1
    19    11    13   ar
    20    11    15   ar
    21    12    14   ar
    22    12    16   ar
    23    13    19   ar
    24    14    20   ar
    25    15    21   ar
    26    16    22   ar
    27    19    23   ar
    28    20    24   ar
    29    21    23   ar
    30    22    24   ar
    31    26    28   ar
    32    27    28   ar
    33    10    31    1
    34    13    32    1
    35    14    33    1
    36    15    34    1
    37    16    35    1
    38    18    36    1
    39    18    37    1
    40    18    38    1
    41    19    39    1
    42    20    40    1
    43    21    41    1
    44    22    42    1
    45    23    43    1
    46    24    44    1
    47    28    45    1
    48    29    46    1
    49    29    47    1
    50    29    48    1
    51    30    49    1
    52    30    50    1
    53    30    51    1
@<TRIPOS>MOLECULE
177236
 51 53 0 0 0
SMALL
GASTEIGER

@<TRIPOS>ATOM
      1 O          -2.2575    0.8231   -1.8256 O.3     1  LIG1       -0.3632
      2 O           0.5990    0.0955    0.5671 O.3     1  LIG1       -0.4494
      3 O           0.0210    2.7617    0.6549 O.co2   1  LIG1       -0.5459
      4 O           0.3025    2.8018   -1.6013 O.co2   1  LIG1       -0.5459
      5 O           4.3729   -0.6105   -2.1183 O.3     1  LIG1       -0.4794
      6 O           4.8275   -0.0666    2.5046 O.3     1  LIG1       -0.4794
      7 N           2.4615   -0.2001   -0.8095 N.ar    1  LIG1       -0.1594
      8 N           2.6803    0.0724    1.5384 N.ar    1  LIG1       -0.1594
      9 C          -1.5906    0.2359   -0.6595 C.3     1  LIG1        0.1609
     10 C          -0.0926    0.6907   -0.5681 C.3     1  LIG1        0.1791
     11 C          -2.4119    0.6737    0.5867 C.ar    1  LIG1       -0.0075
     12 C          -1.8030   -1.3102   -0.8534 C.ar    1  LIG1       -0.0075
     13 C          -2.1849    0.0887    1.8472 C.ar    1  LIG1       -0.0554
     14 C          -3.0784   -1.7839   -1.2384 C.ar    1  LIG1       -0.0554
     15 C          -3.4143    1.6584    0.4998 C.ar    1  LIG1       -0.0554
     16 C          -0.7962   -2.2721   -0.6710 C.ar    1  LIG1       -0.0554
     17 C           0.0558    2.2328   -0.4931 C.2     1  LIG1        0.0856
     18 C          -1.6243    0.6603   -3.0870 C.3     1  LIG1        0.0382
     19 C          -2.9315    0.4655    2.9675 C.ar    1  LIG1       -0.0614
     20 C          -3.3253   -3.1432   -1.4477 C.ar    1  LIG1       -0.0614
     21 C          -4.1664    2.0299    1.6181 C.ar    1  LIG1       -0.0614
     22 C          -1.0472   -3.6359   -0.8611 C.ar    1  LIG1       -0.0614
     23 C          -3.9257    1.4325    2.8517 C.ar    1  LIG1       -0.0617
     24 C          -2.3080   -4.0710   -1.2552 C.ar    1  LIG1       -0.0617
     25 C           1.9680    0.0740    0.4057 C.ar    1  LIG1        0.3249
     26 C           3.7889   -0.3481   -0.8928 C.ar    1  LIG1        0.2240
     27 C           4.0050   -0.0813    1.3908 C.ar    1  LIG1        0.2240
     28 C           4.6270   -0.2995    0.1886 C.ar    1  LIG1        0.0617
     29 C           3.4369   -0.5485   -3.1935 C.3     1  LIG1        0.0804
     30 C           4.1285    0.2882    3.6951 C.3     1  LIG1        0.0804
     31 H           0.3836    0.3617   -1.4998 H       1  LIG1        0.0834
     32 H          -1.4043   -0.6582    1.9693 H       1  LIG1        0.0621
     33 H          -3.8885   -1.0715   -1.3899 H       1  LIG1        0.0621
     34 H          -3.6032    2.1630   -0.4451 H       1  LIG1        0.0621
     35 H           0.2081   -1.9944   -0.3744 H       1  LIG1        0.0621
     36 H          -2.3489    0.9392   -3.8578 H       1  LIG1        0.0524
     37 H          -1.3220   -0.3740   -3.2710 H       1  LIG1        0.0524
     38 H          -0.7662    1.3223   -3.1996 H       1  LIG1        0.0524
     39 H          -2.7180    0.0137    3.9310 H       1  LIG1        0.0618
     40 H          -4.3128   -3.4694   -1.7594 H       1  LIG1        0.0618
     41 H          -4.9226    2.8028    1.5220 H       1  LIG1        0.0618
     42 H          -0.2473   -4.3534   -0.6989 H       1  LIG1        0.0618
     43 H          -4.4947    1.7369    3.7240 H       1  LIG1        0.0618
     44 H          -2.4957   -5.1289   -1.4093 H       1  LIG1        0.0618
     45 H           5.6932   -0.4322    0.1021 H       1  LIG1        0.0724
     46 H           3.9853   -0.7339   -4.1222 H       1  LIG1        0.0660
     47 H           2.9790    0.4440   -3.2686 H       1  LIG1        0.0660
     48 H           2.6739   -1.3297   -3.0991 H       1  LIG1        0.0660
     49 H           4.8577    0.3163    4.5106 H       1  LIG1        0.0660
     50 H           3.3748   -0.4646    3.9511 H       1  LIG1        0.0660
     51 H           3.6818    1.2852    3.6136 H       1  LIG1        0.0660
@<TRIPOS>BOND
     1     1     9    1
     2     1    18    1
     3     2    10    1
     4     2    25    1
     5     3    17   ar
     6     4    17   ar
     7     5    26    1
     8     5    29    1
     9     6    27    1
    10     6    30    1
    11     7    25   ar
    12     7    26   ar
    13     8    25   ar
    14     8    27   ar
    15     9    10    1
    16     9    11    1
    17     9    12    1
    18    10    17    1
    19    11    13   ar
    20    11    15   ar
    21    12    14   ar
    22    12    16   ar
    23    13    19   ar
    24    14    20   ar
    25    15    21   ar
    26    16    22   ar
    27    19    23   ar
    28    20    24   ar
    29    21    23   ar
    30    22    24   ar
    31    26    28   ar
    32    27    28   ar
    33    10    31    1
    34    13    32    1
    35    14    33    1
    36    15    34    1
    37    16    35    1
    38    18    36    1
    39    18    37    1
    40    18    38    1
    41    19    39    1
    42    20    40    1
    43    21    41    1
    44    22    42    1
    45    23    43    1
    46    24    44    1
    47    28    45    1
    48    29    46    1
    49    29    47    1
    50    29    48    1
    51    30    49    1
    52    30    50    1
    53    30    51    1
@<TRIPOS>MOLECULE
177236
 51 53 0 0 0
SMALL
GASTEIGER

@<TRIPOS>ATOM
      1 O          -2.2811    0.8310   -1.8070 O.3     1  LIG1       -0.3632
      2 O           0.5640    0.0818    0.5950 O.3     1  LIG1       -0.4494
      3 O           0.3125    2.7256    0.7102 O.co2   1  LIG1       -0.5459
      4 O          -0.0235    2.8843   -1.5274 O.co2   1  LIG1       -0.5459
      5 O           4.3257   -0.6335   -2.1004 O.3     1  LIG1       -0.4794
      6 O           4.7984   -0.1256    2.5272 O.3     1  LIG1       -0.4794
      7 N           2.4251   -0.2169   -0.7820 N.ar    1  LIG1       -0.1594
      8 N           2.6480    0.0202    1.5712 N.ar    1  LIG1       -0.1594
      9 C          -1.5957    0.2264   -0.6624 C.3     1  LIG1        0.1609
     10 C          -0.1079    0.7059   -0.5397 C.3     1  LIG1        0.1791
     11 C          -2.4087    0.6635    0.5874 C.ar    1  LIG1       -0.0075
     12 C          -1.7822   -1.3196   -0.8944 C.ar    1  LIG1       -0.0075
     13 C          -2.4769   -0.1323    1.7465 C.ar    1  LIG1       -0.0554
     14 C          -3.0287   -1.8016   -1.3569 C.ar    1  LIG1       -0.0554
     15 C          -3.0718    1.9053    0.6116 C.ar    1  LIG1       -0.0554
     16 C          -0.7822   -2.2783   -0.6595 C.ar    1  LIG1       -0.0554
     17 C           0.0442    2.2508   -0.4307 C.2     1  LIG1        0.0856
     18 C          -1.6582    0.7025   -3.0781 C.3     1  LIG1        0.0382
     19 C          -3.2070    0.2795    2.8656 C.ar    1  LIG1       -0.0614
     20 C          -3.2489   -3.1610   -1.5986 C.ar    1  LIG1       -0.0614
     21 C          -3.7937    2.3213    1.7330 C.ar    1  LIG1       -0.0614
     22 C          -1.0091   -3.6426   -0.8760 C.ar    1  LIG1       -0.0614
     23 C          -3.8675    1.5049    2.8575 C.ar    1  LIG1       -0.0617
     24 C          -2.2381   -4.0831   -1.3538 C.ar    1  LIG1       -0.0617
     25 C           1.9341    0.0463    0.4389 C.ar    1  LIG1        0.3249
     26 C           3.7497   -0.3776   -0.8695 C.ar    1  LIG1        0.2240
     27 C           3.9721   -0.1325    1.4162 C.ar    1  LIG1        0.2240
     28 C           4.5908   -0.3420    0.2102 C.ar    1  LIG1        0.0617
     29 C           3.3766   -0.6025   -3.1657 C.3     1  LIG1        0.0804
     30 C           4.1089    0.2555    3.7149 C.3     1  LIG1        0.0804
     31 H           0.3838    0.4087   -1.4735 H       1  LIG1        0.0834
     32 H          -1.9448   -1.0790    1.7942 H       1  LIG1        0.0621
     33 H          -3.8368   -1.0958   -1.5465 H       1  LIG1        0.0621
     34 H          -2.9967    2.5758   -0.2441 H       1  LIG1        0.0621
     35 H           0.1976   -2.0005   -0.2920 H       1  LIG1        0.0621
     36 H          -2.3612    1.0771   -3.8282 H       1  LIG1        0.0524
     37 H          -1.4336   -0.3387   -3.3234 H       1  LIG1        0.0524
     38 H          -0.7505    1.2991   -3.1612 H       1  LIG1        0.0524
     39 H          -3.2383   -0.3509    3.7487 H       1  LIG1        0.0618
     40 H          -4.2119   -3.4915   -1.9768 H       1  LIG1        0.0618
     41 H          -4.2725    3.2957    1.7282 H       1  LIG1        0.0618
     42 H          -0.2158   -4.3550   -0.6675 H       1  LIG1        0.0618
     43 H          -4.4152    1.8360    3.7338 H       1  LIG1        0.0618
     44 H          -2.4066   -5.1409   -1.5309 H       1  LIG1        0.0618
     45 H           5.6563   -0.4777    0.1189 H       1  LIG1        0.0724
     46 H           3.9166   -0.7914   -4.0987 H       1  LIG1        0.0660
     47 H           2.9004    0.3809   -3.2494 H       1  LIG1        0.0660
     48 H           2.6278   -1.3946   -3.0522 H       1  LIG1        0.0660
     49 H           4.8441    0.2940    4.5247 H       1  LIG1        0.0660
     50 H           3.3529   -0.4883    3.9885 H       1  LIG1        0.0660
     51 H           3.6679    1.2538    3.6182 H       1  LIG1        0.0660
@<TRIPOS>BOND
     1     1     9    1
     2     1    18    1
     3     2    10    1
     4     2    25    1
     5     3    17   ar
     6     4    17   ar
     7     5    26    1
     8     5    29    1
     9     6    27    1
    10     6    30    1
    11     7    25   ar
    12     7    26   ar
    13     8    25   ar
    14     8    27   ar
    15     9    10    1
    16     9    11    1
    17     9    12    1
    18    10    17    1
    19    11    13   ar
    20    11    15   ar
    21    12    14   ar
    22    12    16   ar
    23    13    19   ar
    24    14    20   ar
    25    15    21   ar
    26    16    22   ar
    27    19    23   ar
    28    20    24   ar
    29    21    23   ar
    30    22    24   ar
    31    26    28   ar
    32    27    28   ar
    33    10    31    1
    34    13    32    1
    35    14    33    1
    36    15    34    1
    37    16    35    1
    38    18    36    1
    39    18    37    1
    40    18    38    1
    41    19    39    1
    42    20    40    1
    43    21    41    1
    44    22    42    1
    45    23    43    1
    46    24    44    1
    47    28    45    1
    48    29    46    1
    49    29    47    1
    50    29    48    1
    51    30    49    1
    52    30    50    1
    53    30    51    1
@<TRIPOS>MOLECULE
177236
 51 53 0 0 0
SMALL
GASTEIGER

@<TRIPOS>ATOM
      1 O          -2.2721    0.8301   -1.8128 O.3     1  LIG1       -0.3632
      2 O           0.5725    0.0623    0.5834 O.3     1  LIG1       -0.4494
      3 O           0.2480    2.7198    0.6972 O.co2   1  LIG1       -0.5459
      4 O           0.0964    2.8437   -1.5637 O.co2   1  LIG1       -0.5459
      5 O           4.3546   -0.6263   -2.0924 O.3     1  LIG1       -0.4794
      6 O           4.7990   -0.1190    2.5365 O.3     1  LIG1       -0.4794
      7 N           2.4417   -0.2246   -0.7850 N.ar    1  LIG1       -0.1594
      8 N           2.6520    0.0167    1.5669 N.ar    1  LIG1       -0.1594
      9 C          -1.5888    0.2240   -0.6680 C.3     1  LIG1        0.1609
     10 C          -0.0969    0.6877   -0.5531 C.3     1  LIG1        0.1791
     11 C          -2.3961    0.6660    0.5836 C.ar    1  LIG1       -0.0075
     12 C          -1.7894   -1.3200   -0.8969 C.ar    1  LIG1       -0.0075
     13 C          -3.0821    1.8951    0.5984 C.ar    1  LIG1       -0.0554
     14 C          -3.0602   -1.7966   -1.2916 C.ar    1  LIG1       -0.0554
     15 C          -2.4426   -0.1192    1.7510 C.ar    1  LIG1       -0.0554
     16 C          -0.7758   -2.2789   -0.7328 C.ar    1  LIG1       -0.0554
     17 C           0.0665    2.2297   -0.4545 C.2     1  LIG1        0.0856
     18 C          -1.6569    0.6866   -3.0855 C.3     1  LIG1        0.0382
     19 C          -3.8086    2.3073    1.7192 C.ar    1  LIG1       -0.0614
     20 C          -3.2966   -3.1546   -1.5244 C.ar    1  LIG1       -0.0614
     21 C          -3.1755    0.2891    2.8691 C.ar    1  LIG1       -0.0614
     22 C          -1.0157   -3.6414   -0.9444 C.ar    1  LIG1       -0.0614
     23 C          -3.8613    1.5006    2.8515 C.ar    1  LIG1       -0.0617
     24 C          -2.2726   -4.0782   -1.3472 C.ar    1  LIG1       -0.0617
     25 C           1.9440    0.0349    0.4334 C.ar    1  LIG1        0.3249
     26 C           3.7687   -0.3752   -0.8655 C.ar    1  LIG1        0.2240
     27 C           3.9780   -0.1293    1.4210 C.ar    1  LIG1        0.2240
     28 C           4.6033   -0.3356    0.2165 C.ar    1  LIG1        0.0617
     29 C           3.4163   -0.5765   -3.1661 C.3     1  LIG1        0.0804
     30 C           4.1027    0.2634    3.7200 C.3     1  LIG1        0.0804
     31 H           0.3901    0.3771   -1.4861 H       1  LIG1        0.0834
     32 H          -3.0237    2.5587   -0.2634 H       1  LIG1        0.0621
     33 H          -3.8761   -1.0870   -1.4306 H       1  LIG1        0.0621
     34 H          -1.8914   -1.0549    1.8035 H       1  LIG1        0.0621
     35 H           0.2278   -1.9996   -0.4297 H       1  LIG1        0.0621
     36 H          -2.3639    1.0533   -3.8361 H       1  LIG1        0.0524
     37 H          -1.4343   -0.3574   -3.3209 H       1  LIG1        0.0524
     38 H          -0.7502    1.2831   -3.1787 H       1  LIG1        0.0524
     39 H          -4.3062    3.2723    1.7069 H       1  LIG1        0.0618
     40 H          -4.2815   -3.4824   -1.8447 H       1  LIG1        0.0618
     41 H          -3.1910   -0.3331    3.7579 H       1  LIG1        0.0618
     42 H          -0.2110   -4.3546   -0.7932 H       1  LIG1        0.0618
     43 H          -4.4125    1.8289    3.7268 H       1  LIG1        0.0618
     44 H          -2.4529   -5.1347   -1.5193 H       1  LIG1        0.0618
     45 H           5.6712   -0.4658    0.1329 H       1  LIG1        0.0724
     46 H           3.9639   -0.7582   -4.0977 H       1  LIG1        0.0660
     47 H           2.9449    0.4112   -3.2429 H       1  LIG1        0.0660
     48 H           2.6605   -1.3676   -3.0689 H       1  LIG1        0.0660
     49 H           4.8330    0.3027    4.5343 H       1  LIG1        0.0660
     50 H           3.3446   -0.4794    3.9907 H       1  LIG1        0.0660
     51 H           3.6625    1.2618    3.6203 H       1  LIG1        0.0660
@<TRIPOS>BOND
     1     1     9    1
     2     1    18    1
     3     2    10    1
     4     2    25    1
     5     3    17   ar
     6     4    17   ar
     7     5    26    1
     8     5    29    1
     9     6    27    1
    10     6    30    1
    11     7    25   ar
    12     7    26   ar
    13     8    25   ar
    14     8    27   ar
    15     9    10    1
    16     9    11    1
    17     9    12    1
    18    10    17    1
    19    11    13   ar
    20    11    15   ar
    21    12    14   ar
    22    12    16   ar
    23    13    19   ar
    24    14    20   ar
    25    15    21   ar
    26    16    22   ar
    27    19    23   ar
    28    20    24   ar
    29    21    23   ar
    30    22    24   ar
    31    26    28   ar
    32    27    28   ar
    33    10    31    1
    34    13    32    1
    35    14    33    1
    36    15    34    1
    37    16    35    1
    38    18    36    1
    39    18    37    1
    40    18    38    1
    41    19    39    1
    42    20    40    1
    43    21    41    1
    44    22    42    1
    45    23    43    1
    46    24    44    1
    47    28    45    1
    48    29    46    1
    49    29    47    1
    50    29    48    1
    51    30    49    1
    52    30    50    1
    53    30    51    1
