@<TRIPOS>MOLECULE
156690
 70 73 0 0 0
SMALL
GASTEIGER

@<TRIPOS>ATOM
      1 S           2.4750   -0.0830   -3.4054 S.O2    1  LIG1        0.0741
      2 O          -3.3147   -1.1234   -3.2648 O.2     1  LIG1       -0.2756
      3 O           1.1778    0.2907   -3.9333 O.2     1  LIG1       -0.1499
      4 O           3.3670    0.8867   -2.8107 O.2     1  LIG1       -0.1499
      5 O          -2.7561    3.7327    0.1680 O.2     1  LIG1       -0.4436
      6 O           6.4755    0.3929   -5.3025 O.2     1  LIG1       -0.3578
      7 N          -3.1518   -0.9850   -0.9819 N.am    1  LIG1       -0.3002
      8 N           3.2334   -0.8349   -4.7334 N.pl3   1  LIG1       -0.1965
      9 N          -0.9591    5.0115   -0.3168 N.ar    1  LIG1       -0.2175
     10 N           5.5689   -0.3452   -4.5640 N.ar    1  LIG1       -0.0614
     11 C          -5.9812    0.4761   -2.4961 C.3     1  LIG1       -0.0295
     12 C          -5.3945   -0.9110   -2.1282 C.3     1  LIG1        0.0290
     13 C          -7.5188    0.3690   -2.4646 C.3     1  LIG1       -0.0596
     14 C          -5.5569    1.5655   -1.5017 C.3     1  LIG1       -0.0596
     15 C          -5.5564    0.9032   -3.9125 C.3     1  LIG1       -0.0596
     16 C          -3.8716   -1.0108   -2.1696 C.2     1  LIG1        0.2161
     17 C          -1.6929   -1.1761   -1.0552 C.3     1  LIG1        0.0400
     18 C          -0.8477    0.0739   -0.8225 C.ar    1  LIG1       -0.0216
     19 C           0.5732    0.0237   -0.8427 C.ar    1  LIG1       -0.0113
     20 C           1.3417   -1.2170   -1.1194 C.ar    1  LIG1        0.0090
     21 C          -3.7422   -1.0200    0.3516 C.3     1  LIG1        0.0035
     22 C          -1.4757    1.3200   -0.5997 C.ar    1  LIG1       -0.0442
     23 C           2.2202   -1.3921   -2.2185 C.ar    1  LIG1        0.1162
     24 C           1.2816    1.2131   -0.5746 C.ar    1  LIG1       -0.0529
     25 C          -0.7581    2.5052   -0.3940 C.ar    1  LIG1        0.0372
     26 C           0.6319    2.4357   -0.3816 C.ar    1  LIG1       -0.0489
     27 C           1.2291   -2.2925   -0.2131 C.ar    1  LIG1       -0.0521
     28 C           2.9097   -2.6042   -2.4051 C.ar    1  LIG1       -0.0345
     29 C           1.8966   -3.5030   -0.4152 C.ar    1  LIG1       -0.0611
     30 C          -1.4343    3.7845   -0.2046 C.ar    1  LIG1        0.2271
     31 C           2.7325   -3.6600   -1.5131 C.ar    1  LIG1       -0.0599
     32 C           4.4026   -0.2293   -5.2025 C.ar    1  LIG1        0.1837
     33 C           4.5338    0.5112   -6.4068 C.ar    1  LIG1        0.0342
     34 C           5.8543    0.9110   -6.3941 C.ar    1  LIG1        0.1390
     35 C           3.5137    0.8420   -7.4259 C.3     1  LIG1       -0.0330
     36 C          -3.1231    5.0386    0.2799 C.ar    1  LIG1        0.1125
     37 C          -2.0347    5.8123   -0.0296 C.ar    1  LIG1        0.0663
     38 C           6.6758    1.7553   -7.2837 C.3     1  LIG1       -0.0034
     39 H           2.5025   -0.9098   -5.4392 H       1  LIG1        0.1753
     40 H          -5.7579   -1.6571   -2.8500 H       1  LIG1        0.0364
     41 H          -5.7893   -1.2577   -1.1696 H       1  LIG1        0.0364
     42 H          -7.8749    0.0838   -1.4682 H       1  LIG1        0.0235
     43 H          -7.8784   -0.3817   -3.1771 H       1  LIG1        0.0235
     44 H          -7.9893    1.3245   -2.7237 H       1  LIG1        0.0235
     45 H          -5.8290    1.3009   -0.4751 H       1  LIG1        0.0235
     46 H          -6.0428    2.5209   -1.7320 H       1  LIG1        0.0235
     47 H          -4.4799    1.7398   -1.5402 H       1  LIG1        0.0235
     48 H          -5.8078    0.1336   -4.6505 H       1  LIG1        0.0235
     49 H          -4.4793    1.0917   -3.9725 H       1  LIG1        0.0235
     50 H          -6.0604    1.8291   -4.2130 H       1  LIG1        0.0235
     51 H          -1.4196   -1.6001   -2.0271 H       1  LIG1        0.0514
     52 H          -1.4565   -1.9243   -0.2914 H       1  LIG1        0.0514
     53 H          -4.7059   -0.5131    0.3870 H       1  LIG1        0.0429
     54 H          -3.0789   -0.5283    1.0691 H       1  LIG1        0.0429
     55 H          -3.8758   -2.0661    0.6423 H       1  LIG1        0.0429
     56 H          -2.5588    1.3789   -0.6066 H       1  LIG1        0.0628
     57 H           2.3708    1.2083   -0.5360 H       1  LIG1        0.0624
     58 H           1.2253    3.3355   -0.2280 H       1  LIG1        0.0625
     59 H           0.6112   -2.1899    0.6781 H       1  LIG1        0.0624
     60 H           3.5993   -2.7429   -3.2342 H       1  LIG1        0.0637
     61 H           1.7697   -4.3177    0.2936 H       1  LIG1        0.0618
     62 H           3.2607   -4.5982   -1.6671 H       1  LIG1        0.0618
     63 H           2.5320    0.4329   -7.1720 H       1  LIG1        0.0280
     64 H           3.8046    0.4329   -8.3990 H       1  LIG1        0.0280
     65 H           3.4085    1.9268   -7.5263 H       1  LIG1        0.0280
     66 H          -4.1443    5.2314    0.5719 H       1  LIG1        0.1046
     67 H          -1.9653    6.8905   -0.0567 H       1  LIG1        0.0862
     68 H           7.6652    1.9465   -6.8567 H       1  LIG1        0.0309
     69 H           6.1891    2.7223   -7.4481 H       1  LIG1        0.0309
     70 H           6.8103    1.2707   -8.2554 H       1  LIG1        0.0309
@<TRIPOS>BOND
     1     1     3    2
     2     1     4    2
     3     1     8    1
     4     1    23    1
     5     2    16    2
     6     5    30   ar
     7     5    36   ar
     8     6    10   ar
     9     6    34   ar
    10     7    16   am
    11     7    17    1
    12     7    21    1
    13     8    32    1
    14     9    30   ar
    15     9    37   ar
    16    10    32   ar
    17    11    12    1
    18    11    13    1
    19    11    14    1
    20    11    15    1
    21    12    16    1
    22    17    18    1
    23    18    19   ar
    24    18    22   ar
    25    19    20    1
    26    19    24   ar
    27    20    23   ar
    28    20    27   ar
    29    22    25   ar
    30    23    28   ar
    31    24    26   ar
    32    25    26   ar
    33    25    30    1
    34    27    29   ar
    35    28    31   ar
    36    29    31   ar
    37    32    33   ar
    38    33    34   ar
    39    33    35    1
    40    34    38    1
    41    36    37   ar
    42     8    39    1
    43    12    40    1
    44    12    41    1
    45    13    42    1
    46    13    43    1
    47    13    44    1
    48    14    45    1
    49    14    46    1
    50    14    47    1
    51    15    48    1
    52    15    49    1
    53    15    50    1
    54    17    51    1
    55    17    52    1
    56    21    53    1
    57    21    54    1
    58    21    55    1
    59    22    56    1
    60    24    57    1
    61    26    58    1
    62    27    59    1
    63    28    60    1
    64    29    61    1
    65    31    62    1
    66    35    63    1
    67    35    64    1
    68    35    65    1
    69    36    66    1
    70    37    67    1
    71    38    68    1
    72    38    69    1
    73    38    70    1
@<TRIPOS>MOLECULE
156690
 70 73 0 0 0
SMALL
GASTEIGER

@<TRIPOS>ATOM
      1 S           3.3268   -0.4188   -0.6529 S.O2    1  LIG1        0.0741
      2 O          -3.0564   -1.9388    2.1716 O.2     1  LIG1       -0.2756
      3 O           2.5976    0.4552    0.2405 O.2     1  LIG1       -0.1499
      4 O           4.4611   -1.1643   -0.1500 O.2     1  LIG1       -0.1499
      5 O          -2.7973    3.9128   -0.0254 O.2     1  LIG1       -0.4436
      6 O           6.5447   -0.5847   -3.9179 O.2     1  LIG1       -0.3578
      7 N          -3.0885   -0.9218    0.1161 N.am    1  LIG1       -0.3002
      8 N           3.8594    0.5305   -1.9660 N.pl3   1  LIG1       -0.1965
      9 N          -1.0305    5.1189   -0.7498 N.ar    1  LIG1       -0.2175
     10 N           6.0219    0.0837   -2.8276 N.ar    1  LIG1       -0.0614
     11 C          -5.8988   -1.5602    2.7231 C.3     1  LIG1       -0.0295
     12 C          -5.2097   -1.1567    1.3928 C.3     1  LIG1        0.0290
     13 C          -7.3712   -1.0997    2.6495 C.3     1  LIG1       -0.0596
     14 C          -5.8858   -3.0868    2.9082 C.3     1  LIG1       -0.0596
     15 C          -5.2563   -0.8744    3.9412 C.3     1  LIG1       -0.0596
     16 C          -3.7020   -1.3936    1.2799 C.2     1  LIG1        0.2161
     17 C          -1.6205   -1.0459    0.0337 C.3     1  LIG1        0.0400
     18 C          -0.9489    0.1527   -0.6258 C.ar    1  LIG1       -0.0216
     19 C           0.1832    0.0540   -1.4753 C.ar    1  LIG1       -0.0113
     20 C           0.8606   -1.2338   -1.7694 C.ar    1  LIG1        0.0090
     21 C          -3.8255   -0.7719   -1.1366 C.3     1  LIG1        0.0035
     22 C          -1.4658    1.4333   -0.3086 C.ar    1  LIG1       -0.0442
     23 C           2.1857   -1.5665   -1.4038 C.ar    1  LIG1        0.1162
     24 C           0.6588    1.2448   -2.0610 C.ar    1  LIG1       -0.0529
     25 C          -0.9594    2.6074   -0.8722 C.ar    1  LIG1        0.0372
     26 C           0.1092    2.4971   -1.7582 C.ar    1  LIG1       -0.0489
     27 C           0.1351   -2.2219   -2.4721 C.ar    1  LIG1       -0.0521
     28 C           2.6959   -2.8631   -1.6279 C.ar    1  LIG1       -0.0345
     29 C           0.6518   -3.5017   -2.7057 C.ar    1  LIG1       -0.0611
     30 C          -1.5315    3.9120   -0.5595 C.ar    1  LIG1        0.2271
     31 C           1.9257   -3.8287   -2.2657 C.ar    1  LIG1       -0.0599
     32 C           4.6986   -0.0589   -2.9130 C.ar    1  LIG1        0.1837
     33 C           4.3211   -0.7065   -4.1200 C.ar    1  LIG1        0.0342
     34 C           5.5297   -1.0522   -4.6883 C.ar    1  LIG1        0.1390
     35 C           2.9849   -0.9462   -4.7052 C.3     1  LIG1       -0.0330
     36 C          -3.0887    5.2311    0.1428 C.ar    1  LIG1        0.1125
     37 C          -2.0089    5.9604   -0.2832 C.ar    1  LIG1        0.0663
     38 C           5.9065   -1.7674   -5.9233 C.3     1  LIG1       -0.0034
     39 H           4.3177    1.3329   -1.5293 H       1  LIG1        0.1753
     40 H          -5.3732   -0.0830    1.2292 H       1  LIG1        0.0364
     41 H          -5.6964   -1.7022    0.5745 H       1  LIG1        0.0364
     42 H          -7.8875   -1.5519    1.7955 H       1  LIG1        0.0235
     43 H          -7.4400   -0.0108    2.5438 H       1  LIG1        0.0235
     44 H          -7.9207   -1.3787    3.5560 H       1  LIG1        0.0235
     45 H          -6.3548   -3.5903    2.0551 H       1  LIG1        0.0235
     46 H          -6.4390   -3.3783    3.8084 H       1  LIG1        0.0235
     47 H          -4.8704   -3.4806    3.0096 H       1  LIG1        0.0235
     48 H          -5.1911    0.2094    3.7948 H       1  LIG1        0.0235
     49 H          -4.2490   -1.2466    4.1474 H       1  LIG1        0.0235
     50 H          -5.8469   -1.0520    4.8476 H       1  LIG1        0.0235
     51 H          -1.4405   -1.9827   -0.4955 H       1  LIG1        0.0514
     52 H          -1.1839   -1.1518    1.0330 H       1  LIG1        0.0514
     53 H          -4.8213   -0.3563   -0.9685 H       1  LIG1        0.0429
     54 H          -3.9276   -1.7586   -1.5976 H       1  LIG1        0.0429
     55 H          -3.3018   -0.1050   -1.8254 H       1  LIG1        0.0429
     56 H          -2.2927    1.5051    0.3986 H       1  LIG1        0.0628
     57 H           1.4908    1.2242   -2.7584 H       1  LIG1        0.0624
     58 H           0.5321    3.3906   -2.2144 H       1  LIG1        0.0625
     59 H          -0.8728   -2.0022   -2.8262 H       1  LIG1        0.0624
     60 H           3.7056   -3.1291   -1.3152 H       1  LIG1        0.0637
     61 H           0.0475   -4.2453   -3.2206 H       1  LIG1        0.0618
     62 H           2.3253   -4.8256   -2.4307 H       1  LIG1        0.0618
     63 H           2.2189   -0.3253   -4.2400 H       1  LIG1        0.0280
     64 H           2.7011   -1.9967   -4.6026 H       1  LIG1        0.0280
     65 H           2.9838   -0.7051   -5.7737 H       1  LIG1        0.0280
     66 H          -4.0574    5.4633    0.5590 H       1  LIG1        0.1046
     67 H          -1.8857    7.0341   -0.2848 H       1  LIG1        0.0862
     68 H           6.9906   -1.7775   -6.0693 H       1  LIG1        0.0309
     69 H           5.4508   -1.2901   -6.7968 H       1  LIG1        0.0309
     70 H           5.5586   -2.8046   -5.8817 H       1  LIG1        0.0309
@<TRIPOS>BOND
     1     1     3    2
     2     1     4    2
     3     1     8    1
     4     1    23    1
     5     2    16    2
     6     5    30   ar
     7     5    36   ar
     8     6    10   ar
     9     6    34   ar
    10     7    16   am
    11     7    17    1
    12     7    21    1
    13     8    32    1
    14     9    30   ar
    15     9    37   ar
    16    10    32   ar
    17    11    12    1
    18    11    13    1
    19    11    14    1
    20    11    15    1
    21    12    16    1
    22    17    18    1
    23    18    19   ar
    24    18    22   ar
    25    19    20    1
    26    19    24   ar
    27    20    23   ar
    28    20    27   ar
    29    22    25   ar
    30    23    28   ar
    31    24    26   ar
    32    25    26   ar
    33    25    30    1
    34    27    29   ar
    35    28    31   ar
    36    29    31   ar
    37    32    33   ar
    38    33    34   ar
    39    33    35    1
    40    34    38    1
    41    36    37   ar
    42     8    39    1
    43    12    40    1
    44    12    41    1
    45    13    42    1
    46    13    43    1
    47    13    44    1
    48    14    45    1
    49    14    46    1
    50    14    47    1
    51    15    48    1
    52    15    49    1
    53    15    50    1
    54    17    51    1
    55    17    52    1
    56    21    53    1
    57    21    54    1
    58    21    55    1
    59    22    56    1
    60    24    57    1
    61    26    58    1
    62    27    59    1
    63    28    60    1
    64    29    61    1
    65    31    62    1
    66    35    63    1
    67    35    64    1
    68    35    65    1
    69    36    66    1
    70    37    67    1
    71    38    68    1
    72    38    69    1
    73    38    70    1
@<TRIPOS>MOLECULE
156690
 70 73 0 0 0
SMALL
GASTEIGER

@<TRIPOS>ATOM
      1 S           3.5480   -0.1577   -0.6827 S.O2    1  LIG1        0.0741
      2 O          -3.9813   -0.9426   -2.0046 O.2     1  LIG1       -0.2756
      3 O           2.8491    0.8497    0.0773 O.2     1  LIG1       -0.1499
      4 O           4.7120   -0.8193   -0.1232 O.2     1  LIG1       -0.1499
      5 O          -0.8685    4.8792   -0.2988 O.2     1  LIG1       -0.4436
      6 O           7.1918    0.6934   -3.4783 O.2     1  LIG1       -0.3578
      7 N          -3.1512   -1.0297    0.1288 N.am    1  LIG1       -0.3002
      8 N           3.9552    0.4499   -2.2236 N.pl3   1  LIG1       -0.1965
      9 N          -2.9692    4.0492   -0.2635 N.ar    1  LIG1       -0.2175
     10 N           5.9836    0.0454   -3.3263 N.ar    1  LIG1       -0.0614
     11 C          -6.6821   -1.5385   -0.5795 C.3     1  LIG1       -0.0295
     12 C          -5.5843   -0.4792   -0.2987 C.3     1  LIG1        0.0290
     13 C          -7.0313   -1.5948   -2.0783 C.3     1  LIG1       -0.0596
     14 C          -6.2535   -2.9351   -0.1039 C.3     1  LIG1       -0.0596
     15 C          -7.9588   -1.1325    0.1862 C.3     1  LIG1       -0.0596
     16 C          -4.1833   -0.8471   -0.7896 C.2     1  LIG1        0.2161
     17 C          -1.7854   -1.2056   -0.3994 C.3     1  LIG1        0.0400
     18 C          -1.0330    0.0726   -0.7830 C.ar    1  LIG1       -0.0216
     19 C           0.2544    0.0498   -1.4124 C.ar    1  LIG1       -0.0113
     20 C           1.0535   -1.1994   -1.6335 C.ar    1  LIG1        0.0090
     21 C          -3.2754   -1.0356    1.5796 C.3     1  LIG1        0.0035
     22 C          -1.6426    1.3251   -0.5142 C.ar    1  LIG1       -0.0442
     23 C           2.3933   -1.4412   -1.2183 C.ar    1  LIG1        0.1162
     24 C           0.7642    1.2872   -1.8538 C.ar    1  LIG1       -0.0529
     25 C          -1.0446    2.5432   -0.8496 C.ar    1  LIG1        0.0372
     26 C           0.1569    2.5095   -1.5454 C.ar    1  LIG1       -0.0489
     27 C           0.4393   -2.2613   -2.3368 C.ar    1  LIG1       -0.0521
     28 C           2.9911   -2.7138   -1.3794 C.ar    1  LIG1       -0.0345
     29 C           1.0365   -3.5172   -2.4974 C.ar    1  LIG1       -0.0611
     30 C          -1.6923    3.7977   -0.4888 C.ar    1  LIG1        0.2271
     31 C           2.3053   -3.7522   -1.9954 C.ar    1  LIG1       -0.0599
     32 C           5.2717    0.8030   -2.4905 C.ar    1  LIG1        0.1837
     33 C           5.9483    1.9970   -2.1480 C.ar    1  LIG1        0.0342
     34 C           7.1642    1.8648   -2.7907 C.ar    1  LIG1        0.1390
     35 C           5.4673    3.1582   -1.3692 C.3     1  LIG1       -0.0330
     36 C          -1.7140    5.8812    0.0682 C.ar    1  LIG1        0.1125
     37 C          -2.9905    5.3804    0.0654 C.ar    1  LIG1        0.0663
     38 C           8.3614    2.7178   -2.9187 C.3     1  LIG1       -0.0034
     39 H           3.6557   -0.2226   -2.9311 H       1  LIG1        0.1753
     40 H          -5.5836   -0.2103    0.7580 H       1  LIG1        0.0364
     41 H          -5.8462    0.4596   -0.8075 H       1  LIG1        0.0364
     42 H          -6.1958   -1.9647   -2.6797 H       1  LIG1        0.0235
     43 H          -7.3088   -0.6045   -2.4574 H       1  LIG1        0.0235
     44 H          -7.8798   -2.2652   -2.2602 H       1  LIG1        0.0235
     45 H          -5.3874   -3.3042   -0.6635 H       1  LIG1        0.0235
     46 H          -7.0619   -3.6627   -0.2421 H       1  LIG1        0.0235
     47 H          -5.9917   -2.9277    0.9595 H       1  LIG1        0.0235
     48 H          -8.3022   -0.1368   -0.1163 H       1  LIG1        0.0235
     49 H          -7.7839   -1.1130    1.2677 H       1  LIG1        0.0235
     50 H          -8.7772   -1.8374   -0.0024 H       1  LIG1        0.0235
     51 H          -1.9004   -1.8306   -1.2860 H       1  LIG1        0.0514
     52 H          -1.1961   -1.7680    0.3334 H       1  LIG1        0.0514
     53 H          -4.3061   -1.0539    1.9272 H       1  LIG1        0.0429
     54 H          -2.7701   -0.1536    1.9820 H       1  LIG1        0.0429
     55 H          -2.7884   -1.9365    1.9661 H       1  LIG1        0.0429
     56 H          -2.6116    1.3689   -0.0202 H       1  LIG1        0.0628
     57 H           1.6810    1.3385   -2.4300 H       1  LIG1        0.0624
     58 H           0.6424    3.4328   -1.8538 H       1  LIG1        0.0625
     59 H          -0.5390   -2.1175   -2.7959 H       1  LIG1        0.0624
     60 H           4.0172   -2.8974   -1.0592 H       1  LIG1        0.0637
     61 H           0.5036   -4.3074   -3.0217 H       1  LIG1        0.0618
     62 H           2.7783   -4.7230   -2.1216 H       1  LIG1        0.0618
     63 H           4.4335    3.0286   -1.0375 H       1  LIG1        0.0280
     64 H           5.5053    4.0655   -1.9830 H       1  LIG1        0.0280
     65 H           6.0943    3.3178   -0.4870 H       1  LIG1        0.0280
     66 H          -1.2652    6.8393    0.2817 H       1  LIG1        0.1046
     67 H          -3.9129    5.8977    0.2878 H       1  LIG1        0.0862
     68 H           9.1586    2.2052   -3.4673 H       1  LIG1        0.0309
     69 H           8.7491    2.9893   -1.9327 H       1  LIG1        0.0309
     70 H           8.1174    3.6367   -3.4610 H       1  LIG1        0.0309
@<TRIPOS>BOND
     1     1     3    2
     2     1     4    2
     3     1     8    1
     4     1    23    1
     5     2    16    2
     6     5    30   ar
     7     5    36   ar
     8     6    10   ar
     9     6    34   ar
    10     7    16   am
    11     7    17    1
    12     7    21    1
    13     8    32    1
    14     9    30   ar
    15     9    37   ar
    16    10    32   ar
    17    11    12    1
    18    11    13    1
    19    11    14    1
    20    11    15    1
    21    12    16    1
    22    17    18    1
    23    18    19   ar
    24    18    22   ar
    25    19    20    1
    26    19    24   ar
    27    20    23   ar
    28    20    27   ar
    29    22    25   ar
    30    23    28   ar
    31    24    26   ar
    32    25    26   ar
    33    25    30    1
    34    27    29   ar
    35    28    31   ar
    36    29    31   ar
    37    32    33   ar
    38    33    34   ar
    39    33    35    1
    40    34    38    1
    41    36    37   ar
    42     8    39    1
    43    12    40    1
    44    12    41    1
    45    13    42    1
    46    13    43    1
    47    13    44    1
    48    14    45    1
    49    14    46    1
    50    14    47    1
    51    15    48    1
    52    15    49    1
    53    15    50    1
    54    17    51    1
    55    17    52    1
    56    21    53    1
    57    21    54    1
    58    21    55    1
    59    22    56    1
    60    24    57    1
    61    26    58    1
    62    27    59    1
    63    28    60    1
    64    29    61    1
    65    31    62    1
    66    35    63    1
    67    35    64    1
    68    35    65    1
    69    36    66    1
    70    37    67    1
    71    38    68    1
    72    38    69    1
    73    38    70    1
@<TRIPOS>MOLECULE
156690
 70 73 0 0 0
SMALL
GASTEIGER

@<TRIPOS>ATOM
      1 S           2.3702   -0.3114   -3.4366 S.O2    1  LIG1        0.0741
      2 O          -3.3855   -0.9226   -3.4110 O.2     1  LIG1       -0.2756
      3 O           1.1521   -0.1502   -4.1922 O.2     1  LIG1       -0.1499
      4 O           3.0387    0.8223   -2.8250 O.2     1  LIG1       -0.1499
      5 O          -0.8248    4.8783   -0.4005 O.2     1  LIG1       -0.4436
      6 O           2.6270   -2.8970   -7.1736 O.2     1  LIG1       -0.3578
      7 N          -3.2250   -1.0682   -1.1331 N.am    1  LIG1       -0.3002
      8 N           3.5851   -0.9336   -4.4418 N.pl3   1  LIG1       -0.1965
      9 N          -2.8723    3.9421   -0.2213 N.ar    1  LIG1       -0.2175
     10 N           2.7952   -2.7042   -5.8163 N.ar    1  LIG1       -0.0614
     11 C          -6.2750   -2.0306   -2.5030 C.3     1  LIG1       -0.0295
     12 C          -5.4519   -0.7402   -2.2600 C.3     1  LIG1        0.0290
     13 C          -7.7701   -1.6574   -2.4518 C.3     1  LIG1       -0.0596
     14 C          -5.9747   -2.6237   -3.8918 C.3     1  LIG1       -0.0596
     15 C          -6.0050   -3.1017   -1.4361 C.3     1  LIG1       -0.0596
     16 C          -3.9403   -0.9155   -2.3070 C.2     1  LIG1        0.2161
     17 C          -1.7616   -1.2192   -1.2371 C.3     1  LIG1        0.0400
     18 C          -0.9388    0.0375   -0.9661 C.ar    1  LIG1       -0.0216
     19 C           0.4791   -0.0225   -0.8786 C.ar    1  LIG1       -0.0113
     20 C           1.2508   -1.2737   -1.0699 C.ar    1  LIG1        0.0090
     21 C          -3.7762   -1.0874    0.2199 C.3     1  LIG1        0.0035
     22 C          -1.5731    1.2930   -0.8202 C.ar    1  LIG1       -0.0442
     23 C           2.1053   -1.5377   -2.1693 C.ar    1  LIG1        0.1162
     24 C           1.1769    1.1580   -0.5587 C.ar    1  LIG1       -0.0529
     25 C          -0.8605    2.4689   -0.5453 C.ar    1  LIG1        0.0372
     26 C           0.5238    2.3845   -0.4104 C.ar    1  LIG1       -0.0489
     27 C           1.1389   -2.2773   -0.0834 C.ar    1  LIG1       -0.0521
     28 C           2.7619   -2.7756   -2.2803 C.ar    1  LIG1       -0.0345
     29 C           1.7884   -3.5069   -0.2046 C.ar    1  LIG1       -0.0611
     30 C          -1.5781    3.7306   -0.3854 C.ar    1  LIG1        0.2271
     31 C           2.5934   -3.7590   -1.3075 C.ar    1  LIG1       -0.0599
     32 C           3.2184   -1.4464   -5.6798 C.ar    1  LIG1        0.1837
     33 C           3.3504   -0.7935   -6.9317 C.ar    1  LIG1        0.0342
     34 C           2.9627   -1.7593   -7.8361 C.ar    1  LIG1        0.1390
     35 C           3.7637    0.5961   -7.2252 C.3     1  LIG1       -0.0330
     36 C          -1.7351    5.8776   -0.2416 C.ar    1  LIG1        0.1125
     37 C          -2.9759    5.3065   -0.1264 C.ar    1  LIG1        0.0663
     38 C           2.8404   -1.7971   -9.3062 C.3     1  LIG1       -0.0034
     39 H           4.3174   -0.2258   -4.4583 H       1  LIG1        0.1753
     40 H          -5.7630   -0.2375   -1.3410 H       1  LIG1        0.0364
     41 H          -5.6905   -0.0111   -3.0489 H       1  LIG1        0.0364
     42 H          -8.0170   -0.9080   -3.2124 H       1  LIG1        0.0235
     43 H          -8.0407   -1.2430   -1.4741 H       1  LIG1        0.0235
     44 H          -8.4056   -2.5324   -2.6292 H       1  LIG1        0.0235
     45 H          -6.1134   -1.8764   -4.6808 H       1  LIG1        0.0235
     46 H          -6.6410   -3.4656   -4.1133 H       1  LIG1        0.0235
     47 H          -4.9483   -2.9997   -3.9581 H       1  LIG1        0.0235
     48 H          -6.2454   -2.7342   -0.4331 H       1  LIG1        0.0235
     49 H          -4.9588   -3.4241   -1.4417 H       1  LIG1        0.0235
     50 H          -6.6192   -3.9927   -1.6109 H       1  LIG1        0.0235
     51 H          -1.4969   -1.5976   -2.2290 H       1  LIG1        0.0514
     52 H          -1.4976   -1.9938   -0.5101 H       1  LIG1        0.0514
     53 H          -4.8596   -0.9721    0.2480 H       1  LIG1        0.0429
     54 H          -3.3352   -0.2800    0.8098 H       1  LIG1        0.0429
     55 H          -3.5276   -2.0453    0.6871 H       1  LIG1        0.0429
     56 H          -2.6539    1.3709   -0.9299 H       1  LIG1        0.0628
     57 H           2.2596    1.1385   -0.4404 H       1  LIG1        0.0624
     58 H           1.1165    3.2706   -0.1937 H       1  LIG1        0.0625
     59 H           0.5212   -2.1041    0.7974 H       1  LIG1        0.0624
     60 H           3.4045   -3.0068   -3.1263 H       1  LIG1        0.0637
     61 H           1.6596   -4.2686    0.5599 H       1  LIG1        0.0618
     62 H           3.0929   -4.7188   -1.4134 H       1  LIG1        0.0618
     63 H           3.9863    1.1574   -6.3131 H       1  LIG1        0.0280
     64 H           2.9640    1.1261   -7.7541 H       1  LIG1        0.0280
     65 H           4.6581    0.6069   -7.8561 H       1  LIG1        0.0280
     66 H          -1.3498    6.8862   -0.2330 H       1  LIG1        0.1046
     67 H          -3.9280    5.7973    0.0165 H       1  LIG1        0.0862
     68 H           2.6611   -2.8149   -9.6663 H       1  LIG1        0.0309
     69 H           3.7585   -1.4310   -9.7764 H       1  LIG1        0.0309
     70 H           2.0095   -1.1663   -9.6355 H       1  LIG1        0.0309
@<TRIPOS>BOND
     1     1     3    2
     2     1     4    2
     3     1     8    1
     4     1    23    1
     5     2    16    2
     6     5    30   ar
     7     5    36   ar
     8     6    10   ar
     9     6    34   ar
    10     7    16   am
    11     7    17    1
    12     7    21    1
    13     8    32    1
    14     9    30   ar
    15     9    37   ar
    16    10    32   ar
    17    11    12    1
    18    11    13    1
    19    11    14    1
    20    11    15    1
    21    12    16    1
    22    17    18    1
    23    18    19   ar
    24    18    22   ar
    25    19    20    1
    26    19    24   ar
    27    20    23   ar
    28    20    27   ar
    29    22    25   ar
    30    23    28   ar
    31    24    26   ar
    32    25    26   ar
    33    25    30    1
    34    27    29   ar
    35    28    31   ar
    36    29    31   ar
    37    32    33   ar
    38    33    34   ar
    39    33    35    1
    40    34    38    1
    41    36    37   ar
    42     8    39    1
    43    12    40    1
    44    12    41    1
    45    13    42    1
    46    13    43    1
    47    13    44    1
    48    14    45    1
    49    14    46    1
    50    14    47    1
    51    15    48    1
    52    15    49    1
    53    15    50    1
    54    17    51    1
    55    17    52    1
    56    21    53    1
    57    21    54    1
    58    21    55    1
    59    22    56    1
    60    24    57    1
    61    26    58    1
    62    27    59    1
    63    28    60    1
    64    29    61    1
    65    31    62    1
    66    35    63    1
    67    35    64    1
    68    35    65    1
    69    36    66    1
    70    37    67    1
    71    38    68    1
    72    38    69    1
    73    38    70    1
@<TRIPOS>MOLECULE
156690
 70 73 0 0 0
SMALL
GASTEIGER

@<TRIPOS>ATOM
      1 S           3.5312   -0.2725   -0.5662 S.O2    1  LIG1        0.0741
      2 O          -2.1224   -0.9305   -3.2749 O.2     1  LIG1       -0.2756
      3 O           2.7261    0.5713    0.2987 O.2     1  LIG1       -0.1499
      4 O           4.7006   -0.9225   -0.0081 O.2     1  LIG1       -0.1499
      5 O          -0.9069    4.8941   -0.7456 O.2     1  LIG1       -0.4436
      6 O           6.5534   -0.6161   -3.9073 O.2     1  LIG1       -0.3578
      7 N          -3.1115   -1.2305   -1.2112 N.am    1  LIG1       -0.3002
      8 N           4.0313    0.6988   -1.8520 N.pl3   1  LIG1       -0.1965
      9 N          -2.8047    3.9385    0.0195 N.ar    1  LIG1       -0.2175
     10 N           5.2892   -0.6803   -3.3479 N.ar    1  LIG1       -0.0614
     11 C          -5.1497    0.0429   -3.7163 C.3     1  LIG1       -0.0295
     12 C          -4.4444   -1.2890   -3.3623 C.3     1  LIG1        0.0290
     13 C          -6.4678   -0.2991   -4.4383 C.3     1  LIG1       -0.0596
     14 C          -5.4751    0.8765   -2.4690 C.3     1  LIG1       -0.0596
     15 C          -4.2854    0.8902   -4.6694 C.3     1  LIG1       -0.0596
     16 C          -3.1334   -1.1419   -2.6020 C.2     1  LIG1        0.2161
     17 C          -1.8171   -1.1896   -0.4855 C.3     1  LIG1        0.0400
     18 C          -0.9553    0.0138   -0.8214 C.ar    1  LIG1       -0.0216
     19 C           0.3184   -0.0415   -1.4569 C.ar    1  LIG1       -0.0113
     20 C           1.1202   -1.2943   -1.6808 C.ar    1  LIG1        0.0090
     21 C          -4.2596   -1.5880   -0.3903 C.3     1  LIG1        0.0035
     22 C          -1.5482    1.2697   -0.5196 C.ar    1  LIG1       -0.0442
     23 C           2.4826   -1.4949   -1.3332 C.ar    1  LIG1        0.1162
     24 C           0.8174    1.1908   -1.9258 C.ar    1  LIG1       -0.0529
     25 C          -0.9634    2.4819   -0.8851 C.ar    1  LIG1        0.0372
     26 C           0.2144    2.4247   -1.6251 C.ar    1  LIG1       -0.0489
     27 C           0.5042   -2.4001   -2.3106 C.ar    1  LIG1       -0.0521
     28 C           3.1146   -2.7474   -1.5321 C.ar    1  LIG1       -0.0345
     29 C           1.1264   -3.6409   -2.4925 C.ar    1  LIG1       -0.0611
     30 C          -1.6157    3.7390   -0.5244 C.ar    1  LIG1        0.2271
     31 C           2.4347   -3.8196   -2.0923 C.ar    1  LIG1       -0.0599
     32 C           5.1934    0.3788   -2.5431 C.ar    1  LIG1        0.1837
     33 C           6.3791    1.1558   -2.5552 C.ar    1  LIG1        0.0342
     34 C           7.2029    0.4789   -3.4299 C.ar    1  LIG1        0.1390
     35 C           6.7012    2.3712   -1.7788 C.3     1  LIG1       -0.0330
     36 C          -1.7321    5.8833   -0.3047 C.ar    1  LIG1        0.1125
     37 C          -2.8858    5.3011    0.1529 C.ar    1  LIG1        0.0663
     38 C           8.5846    0.6932   -3.9044 C.3     1  LIG1       -0.0034
     39 H           3.8901    1.6715   -1.5947 H       1  LIG1        0.1753
     40 H          -4.1882   -1.8122   -4.2969 H       1  LIG1        0.0364
     41 H          -5.1197   -1.9846   -2.8599 H       1  LIG1        0.0364
     42 H          -7.1207   -0.9060   -3.8012 H       1  LIG1        0.0235
     43 H          -6.2801   -0.8645   -5.3583 H       1  LIG1        0.0235
     44 H          -7.0192    0.6074   -4.7119 H       1  LIG1        0.0235
     45 H          -6.1148    0.3221   -1.7755 H       1  LIG1        0.0235
     46 H          -6.0078    1.7954   -2.7396 H       1  LIG1        0.0235
     47 H          -4.5676    1.1763   -1.9348 H       1  LIG1        0.0235
     48 H          -4.0166    0.3262   -5.5697 H       1  LIG1        0.0235
     49 H          -3.3588    1.2227   -4.1901 H       1  LIG1        0.0235
     50 H          -4.8227    1.7896   -4.9925 H       1  LIG1        0.0235
     51 H          -1.3256   -2.1519   -0.6226 H       1  LIG1        0.0514
     52 H          -2.0334   -1.1319    0.5907 H       1  LIG1        0.0514
     53 H          -5.1960   -1.6472   -0.9404 H       1  LIG1        0.0429
     54 H          -4.3770   -0.8307    0.3907 H       1  LIG1        0.0429
     55 H          -4.0692   -2.5613    0.0711 H       1  LIG1        0.0429
     56 H          -2.5093    1.2905   -0.0035 H       1  LIG1        0.0628
     57 H           1.7003    1.2069   -2.5571 H       1  LIG1        0.0624
     58 H           0.6810    3.3384   -1.9859 H       1  LIG1        0.0625
     59 H          -0.5096   -2.3215   -2.6842 H       1  LIG1        0.0624
     60 H           4.1585   -2.8945   -1.2555 H       1  LIG1        0.0637
     61 H           0.5767   -4.4565   -2.9559 H       1  LIG1        0.0618
     62 H           2.9323   -4.7748   -2.2321 H       1  LIG1        0.0618
     63 H           5.8459    2.7165   -1.1901 H       1  LIG1        0.0280
     64 H           7.0052    3.1861   -2.4418 H       1  LIG1        0.0280
     65 H           7.5213    2.1659   -1.0824 H       1  LIG1        0.0280
     66 H          -1.3627    6.8949   -0.3852 H       1  LIG1        0.1046
     67 H          -3.7589    5.7829    0.5692 H       1  LIG1        0.0862
     68 H           8.8604   -0.0230   -4.6845 H       1  LIG1        0.0309
     69 H           9.2915    0.5832   -3.0763 H       1  LIG1        0.0309
     70 H           8.6966    1.7013   -4.3165 H       1  LIG1        0.0309
@<TRIPOS>BOND
     1     1     3    2
     2     1     4    2
     3     1     8    1
     4     1    23    1
     5     2    16    2
     6     5    30   ar
     7     5    36   ar
     8     6    10   ar
     9     6    34   ar
    10     7    16   am
    11     7    17    1
    12     7    21    1
    13     8    32    1
    14     9    30   ar
    15     9    37   ar
    16    10    32   ar
    17    11    12    1
    18    11    13    1
    19    11    14    1
    20    11    15    1
    21    12    16    1
    22    17    18    1
    23    18    19   ar
    24    18    22   ar
    25    19    20    1
    26    19    24   ar
    27    20    23   ar
    28    20    27   ar
    29    22    25   ar
    30    23    28   ar
    31    24    26   ar
    32    25    26   ar
    33    25    30    1
    34    27    29   ar
    35    28    31   ar
    36    29    31   ar
    37    32    33   ar
    38    33    34   ar
    39    33    35    1
    40    34    38    1
    41    36    37   ar
    42     8    39    1
    43    12    40    1
    44    12    41    1
    45    13    42    1
    46    13    43    1
    47    13    44    1
    48    14    45    1
    49    14    46    1
    50    14    47    1
    51    15    48    1
    52    15    49    1
    53    15    50    1
    54    17    51    1
    55    17    52    1
    56    21    53    1
    57    21    54    1
    58    21    55    1
    59    22    56    1
    60    24    57    1
    61    26    58    1
    62    27    59    1
    63    28    60    1
    64    29    61    1
    65    31    62    1
    66    35    63    1
    67    35    64    1
    68    35    65    1
    69    36    66    1
    70    37    67    1
    71    38    68    1
    72    38    69    1
    73    38    70    1
@<TRIPOS>MOLECULE
156690
 70 73 0 0 0
SMALL
GASTEIGER

@<TRIPOS>ATOM
      1 S           3.2654   -0.4715   -0.6162 S.O2    1  LIG1        0.0741
      2 O          -3.8221   -1.0905   -1.8765 O.2     1  LIG1       -0.2756
      3 O           2.5057    0.3832    0.2675 O.2     1  LIG1       -0.1499
      4 O           4.3904   -1.2163   -0.0833 O.2     1  LIG1       -0.1499
      5 O          -2.9492    3.7955   -0.1338 O.2     1  LIG1       -0.4436
      6 O           6.5294   -0.6325   -3.8395 O.2     1  LIG1       -0.3578
      7 N          -3.0867   -1.0578    0.2941 N.am    1  LIG1       -0.3002
      8 N           3.8379    0.4926   -1.9019 N.pl3   1  LIG1       -0.1965
      9 N          -1.1664    5.0126   -0.7977 N.ar    1  LIG1       -0.2175
     10 N           6.0023    0.0181   -2.7408 N.ar    1  LIG1       -0.0614
     11 C          -6.5841   -1.5566   -0.5063 C.3     1  LIG1       -0.0295
     12 C          -5.4772   -0.5028   -0.2550 C.3     1  LIG1        0.0290
     13 C          -6.9093   -1.6659   -2.0072 C.3     1  LIG1       -0.0596
     14 C          -6.1847   -2.9403    0.0293 C.3     1  LIG1       -0.0596
     15 C          -7.8626   -1.0997    0.2254 C.3     1  LIG1       -0.0596
     16 C          -4.0721   -0.9243   -0.6793 C.2     1  LIG1        0.2161
     17 C          -1.6965   -1.2113   -0.1573 C.3     1  LIG1        0.0400
     18 C          -1.0489    0.0457   -0.7360 C.ar    1  LIG1       -0.0216
     19 C           0.1368   -0.0162   -1.5230 C.ar    1  LIG1       -0.0113
     20 C           0.8424   -1.2906   -1.8148 C.ar    1  LIG1        0.0090
     21 C          -3.3012   -1.0422    1.7339 C.3     1  LIG1        0.0035
     22 C          -1.6166    1.3113   -0.4521 C.ar    1  LIG1       -0.0442
     23 C           2.1573   -1.6202   -1.4108 C.ar    1  LIG1        0.1162
     24 C           0.6307    1.1913   -2.0564 C.ar    1  LIG1       -0.0529
     25 C          -1.0819    2.5047   -0.9521 C.ar    1  LIG1        0.0372
     26 C           0.0469    2.4280   -1.7636 C.ar    1  LIG1       -0.0489
     27 C           0.1560   -2.2738   -2.5629 C.ar    1  LIG1       -0.0521
     28 C           2.6838   -2.9108   -1.6338 C.ar    1  LIG1       -0.0345
     29 C           0.6850   -3.5467   -2.7921 C.ar    1  LIG1       -0.0611
     30 C          -1.6736    3.8024   -0.6434 C.ar    1  LIG1        0.2271
     31 C           1.9432   -3.8741   -2.3085 C.ar    1  LIG1       -0.0599
     32 C           4.6776   -0.0945   -2.8508 C.ar    1  LIG1        0.1837
     33 C           4.3072   -0.7069   -4.0785 C.ar    1  LIG1        0.0342
     34 C           5.5179   -1.0611   -4.6371 C.ar    1  LIG1        0.1390
     35 C           2.9769   -0.9107   -4.6910 C.3     1  LIG1       -0.0330
     36 C          -3.2468    5.1122    0.0403 C.ar    1  LIG1        0.1125
     37 C          -2.1580    5.8477   -0.3508 C.ar    1  LIG1        0.0663
     38 C           5.9005   -1.7527   -5.8838 C.3     1  LIG1       -0.0034
     39 H           4.3119    1.2730   -1.4434 H       1  LIG1        0.1753
     40 H          -5.4938   -0.1735    0.7861 H       1  LIG1        0.0364
     41 H          -5.7045    0.4112   -0.8221 H       1  LIG1        0.0364
     42 H          -6.0650   -2.0603   -2.5805 H       1  LIG1        0.0235
     43 H          -7.1746   -0.6888   -2.4268 H       1  LIG1        0.0235
     44 H          -7.7581   -2.3383   -2.1784 H       1  LIG1        0.0235
     45 H          -5.3139   -3.3426   -0.4994 H       1  LIG1        0.0235
     46 H          -7.0010   -3.6610   -0.0979 H       1  LIG1        0.0235
     47 H          -5.9440   -2.8984    1.0966 H       1  LIG1        0.0235
     48 H          -8.1866   -0.1124   -0.1225 H       1  LIG1        0.0235
     49 H          -7.6992   -1.0367    1.3072 H       1  LIG1        0.0235
     50 H          -8.6892   -1.7997    0.0570 H       1  LIG1        0.0235
     51 H          -1.7301   -2.0045   -0.9061 H       1  LIG1        0.0514
     52 H          -1.0810   -1.5702    0.6755 H       1  LIG1        0.0514
     53 H          -4.3386   -1.2402    2.0020 H       1  LIG1        0.0429
     54 H          -2.9961   -0.0691    2.1267 H       1  LIG1        0.0429
     55 H          -2.6942   -1.8280    2.1944 H       1  LIG1        0.0429
     56 H          -2.5015    1.3730    0.1766 H       1  LIG1        0.0628
     57 H           1.4999    1.1963   -2.7057 H       1  LIG1        0.0624
     58 H           0.4865    3.3356   -2.1736 H       1  LIG1        0.0625
     59 H          -0.8373   -2.0520   -2.9615 H       1  LIG1        0.0624
     60 H           3.6853   -3.1722   -1.2926 H       1  LIG1        0.0637
     61 H           0.1047   -4.2842   -3.3416 H       1  LIG1        0.0618
     62 H           2.3574   -4.8656   -2.4716 H       1  LIG1        0.0618
     63 H           2.2150   -0.2822   -4.2304 H       1  LIG1        0.0280
     64 H           2.6717   -1.9571   -4.6104 H       1  LIG1        0.0280
     65 H           2.9993   -0.6535   -5.7556 H       1  LIG1        0.0280
     66 H          -4.2259    5.3396    0.4335 H       1  LIG1        0.1046
     67 H          -2.0364    6.9216   -0.3395 H       1  LIG1        0.0862
     68 H           6.9850   -1.7516   -6.0287 H       1  LIG1        0.0309
     69 H           5.4425   -1.2646   -6.7499 H       1  LIG1        0.0309
     70 H           5.5609   -2.7929   -5.8594 H       1  LIG1        0.0309
@<TRIPOS>BOND
     1     1     3    2
     2     1     4    2
     3     1     8    1
     4     1    23    1
     5     2    16    2
     6     5    30   ar
     7     5    36   ar
     8     6    10   ar
     9     6    34   ar
    10     7    16   am
    11     7    17    1
    12     7    21    1
    13     8    32    1
    14     9    30   ar
    15     9    37   ar
    16    10    32   ar
    17    11    12    1
    18    11    13    1
    19    11    14    1
    20    11    15    1
    21    12    16    1
    22    17    18    1
    23    18    19   ar
    24    18    22   ar
    25    19    20    1
    26    19    24   ar
    27    20    23   ar
    28    20    27   ar
    29    22    25   ar
    30    23    28   ar
    31    24    26   ar
    32    25    26   ar
    33    25    30    1
    34    27    29   ar
    35    28    31   ar
    36    29    31   ar
    37    32    33   ar
    38    33    34   ar
    39    33    35    1
    40    34    38    1
    41    36    37   ar
    42     8    39    1
    43    12    40    1
    44    12    41    1
    45    13    42    1
    46    13    43    1
    47    13    44    1
    48    14    45    1
    49    14    46    1
    50    14    47    1
    51    15    48    1
    52    15    49    1
    53    15    50    1
    54    17    51    1
    55    17    52    1
    56    21    53    1
    57    21    54    1
    58    21    55    1
    59    22    56    1
    60    24    57    1
    61    26    58    1
    62    27    59    1
    63    28    60    1
    64    29    61    1
    65    31    62    1
    66    35    63    1
    67    35    64    1
    68    35    65    1
    69    36    66    1
    70    37    67    1
    71    38    68    1
    72    38    69    1
    73    38    70    1
@<TRIPOS>MOLECULE
156690
 70 73 0 0 0
SMALL
GASTEIGER

@<TRIPOS>ATOM
      1 S           3.3266   -0.4735   -0.6392 S.O2    1  LIG1        0.0741
      2 O          -4.0022   -0.8824   -1.7533 O.2     1  LIG1       -0.2756
      3 O           2.5698    0.3954    0.2349 O.2     1  LIG1       -0.1499
      4 O           4.4362   -1.2302   -0.0955 O.2     1  LIG1       -0.1499
      5 O          -2.8446    3.8862   -0.2965 O.2     1  LIG1       -0.4436
      6 O           6.5951   -0.6805   -3.8631 O.2     1  LIG1       -0.3578
      7 N          -3.0182   -0.9010    0.3144 N.am    1  LIG1       -0.3002
      8 N           3.9216    0.4783   -1.9229 N.pl3   1  LIG1       -0.1965
      9 N          -1.0277    5.0842   -0.8987 N.ar    1  LIG1       -0.2175
     10 N           6.0767   -0.0279   -2.7614 N.ar    1  LIG1       -0.0614
     11 C          -6.0568    0.7999    0.1856 C.3     1  LIG1       -0.0295
     12 C          -5.5223   -0.6522    0.0661 C.3     1  LIG1        0.0290
     13 C          -7.5593    0.7271    0.5318 C.3     1  LIG1       -0.0596
     14 C          -5.3603    1.5866    1.3049 C.3     1  LIG1       -0.0596
     15 C          -5.9069    1.5679   -1.1395 C.3     1  LIG1       -0.0596
     16 C          -4.1225   -0.8191   -0.5251 C.2     1  LIG1        0.2161
     17 C          -1.7005   -1.1241   -0.3024 C.3     1  LIG1        0.0400
     18 C          -0.9979    0.1160   -0.8491 C.ar    1  LIG1       -0.0216
     19 C           0.2114    0.0271   -1.5962 C.ar    1  LIG1       -0.0113
     20 C           0.9022   -1.2657   -1.8580 C.ar    1  LIG1        0.0090
     21 C          -3.0477   -0.9330    1.7678 C.3     1  LIG1        0.0035
     22 C          -1.5504    1.3923   -0.5984 C.ar    1  LIG1       -0.0442
     23 C           2.2079   -1.6106   -1.4361 C.ar    1  LIG1        0.1162
     24 C           0.7444    1.2246   -2.1154 C.ar    1  LIG1       -0.0529
     25 C          -0.9764    2.5753   -1.0748 C.ar    1  LIG1        0.0372
     26 C           0.1776    2.4751   -1.8446 C.ar    1  LIG1       -0.0489
     27 C           0.2067   -2.2504   -2.5973 C.ar    1  LIG1       -0.0521
     28 C           2.7147   -2.9138   -1.6362 C.ar    1  LIG1       -0.0345
     29 C           0.7180   -3.5365   -2.8035 C.ar    1  LIG1       -0.0611
     30 C          -1.5570    3.8802   -0.7755 C.ar    1  LIG1        0.2271
     31 C           1.9657   -3.8759   -2.3041 C.ar    1  LIG1       -0.0599
     32 C           4.7519   -0.1226   -2.8718 C.ar    1  LIG1        0.1837
     33 C           4.3757   -0.7300   -4.1028 C.ar    1  LIG1        0.0342
     34 C           5.5794   -1.0938   -4.6620 C.ar    1  LIG1        0.1390
     35 C           3.0391   -0.9144   -4.7143 C.3     1  LIG1       -0.0330
     36 C          -3.1254    5.2036   -0.1052 C.ar    1  LIG1        0.1125
     37 C          -2.0166    5.9276   -0.4593 C.ar    1  LIG1        0.0663
     38 C           5.9501   -1.7809   -5.9158 C.3     1  LIG1       -0.0034
     39 H           4.4126    1.2467   -1.4613 H       1  LIG1        0.1753
     40 H          -6.1845   -1.2128   -0.6114 H       1  LIG1        0.0364
     41 H          -5.6068   -1.1849    1.0179 H       1  LIG1        0.0364
     42 H          -7.7218    0.1856    1.4707 H       1  LIG1        0.0235
     43 H          -8.1242    0.2126   -0.2535 H       1  LIG1        0.0235
     44 H          -7.9903    1.7284    0.6474 H       1  LIG1        0.0235
     45 H          -5.4976    1.1008    2.2766 H       1  LIG1        0.0235
     46 H          -5.7696    2.6004    1.3878 H       1  LIG1        0.0235
     47 H          -4.2890    1.6878    1.1257 H       1  LIG1        0.0235
     48 H          -6.3874    1.0305   -1.9648 H       1  LIG1        0.0235
     49 H          -4.8548    1.7222   -1.4009 H       1  LIG1        0.0235
     50 H          -6.3720    2.5590   -1.0768 H       1  LIG1        0.0235
     51 H          -1.8699   -1.8365   -1.1132 H       1  LIG1        0.0514
     52 H          -1.0479   -1.6084    0.4335 H       1  LIG1        0.0514
     53 H          -4.0201   -0.6809    2.1831 H       1  LIG1        0.0429
     54 H          -2.3100   -0.2232    2.1529 H       1  LIG1        0.0429
     55 H          -2.7846   -1.9435    2.0947 H       1  LIG1        0.0429
     56 H          -2.4568    1.4709   -0.0088 H       1  LIG1        0.0628
     57 H           1.6336    1.2129   -2.7365 H       1  LIG1        0.0624
     58 H           0.6500    3.3731   -2.2383 H       1  LIG1        0.0625
     59 H          -0.7735   -2.0210   -3.0182 H       1  LIG1        0.0624
     60 H           3.7093   -3.1859   -1.2818 H       1  LIG1        0.0637
     61 H           0.1327   -4.2719   -3.3500 H       1  LIG1        0.0618
     62 H           2.3678   -4.8757   -2.4482 H       1  LIG1        0.0618
     63 H           2.2879   -0.2654   -4.2647 H       1  LIG1        0.0280
     64 H           2.7142   -1.9541   -4.6188 H       1  LIG1        0.0280
     65 H           3.0681   -0.6737   -5.7817 H       1  LIG1        0.0280
     66 H          -4.1097    5.4385    0.2707 H       1  LIG1        0.1046
     67 H          -1.8781    6.9988   -0.4238 H       1  LIG1        0.0862
     68 H           7.0330   -1.7839   -6.0664 H       1  LIG1        0.0309
     69 H           5.4904   -1.2842   -6.7764 H       1  LIG1        0.0309
     70 H           5.6033   -2.8184   -5.8948 H       1  LIG1        0.0309
@<TRIPOS>BOND
     1     1     3    2
     2     1     4    2
     3     1     8    1
     4     1    23    1
     5     2    16    2
     6     5    30   ar
     7     5    36   ar
     8     6    10   ar
     9     6    34   ar
    10     7    16   am
    11     7    17    1
    12     7    21    1
    13     8    32    1
    14     9    30   ar
    15     9    37   ar
    16    10    32   ar
    17    11    12    1
    18    11    13    1
    19    11    14    1
    20    11    15    1
    21    12    16    1
    22    17    18    1
    23    18    19   ar
    24    18    22   ar
    25    19    20    1
    26    19    24   ar
    27    20    23   ar
    28    20    27   ar
    29    22    25   ar
    30    23    28   ar
    31    24    26   ar
    32    25    26   ar
    33    25    30    1
    34    27    29   ar
    35    28    31   ar
    36    29    31   ar
    37    32    33   ar
    38    33    34   ar
    39    33    35    1
    40    34    38    1
    41    36    37   ar
    42     8    39    1
    43    12    40    1
    44    12    41    1
    45    13    42    1
    46    13    43    1
    47    13    44    1
    48    14    45    1
    49    14    46    1
    50    14    47    1
    51    15    48    1
    52    15    49    1
    53    15    50    1
    54    17    51    1
    55    17    52    1
    56    21    53    1
    57    21    54    1
    58    21    55    1
    59    22    56    1
    60    24    57    1
    61    26    58    1
    62    27    59    1
    63    28    60    1
    64    29    61    1
    65    31    62    1
    66    35    63    1
    67    35    64    1
    68    35    65    1
    69    36    66    1
    70    37    67    1
    71    38    68    1
    72    38    69    1
    73    38    70    1
@<TRIPOS>MOLECULE
156690
 70 73 0 0 0
SMALL
GASTEIGER

@<TRIPOS>ATOM
      1 S           3.2511   -0.4510   -0.6147 S.O2    1  LIG1        0.0741
      2 O          -3.8488   -1.1207   -1.8730 O.2     1  LIG1       -0.2756
      3 O           2.4842    0.4046    0.2640 O.2     1  LIG1       -0.1499
      4 O           4.3772   -1.1871   -0.0785 O.2     1  LIG1       -0.1499
      5 O          -2.9789    3.7867   -0.1428 O.2     1  LIG1       -0.4436
      6 O           6.5190   -0.6106   -3.8312 O.2     1  LIG1       -0.3578
      7 N          -3.0991   -1.0607    0.2926 N.am    1  LIG1       -0.3002
      8 N           3.8198    0.5125   -1.9048 N.pl3   1  LIG1       -0.1965
      9 N          -1.2011    5.0105   -0.8076 N.ar    1  LIG1       -0.2175
     10 N           5.9872    0.0436   -2.7368 N.ar    1  LIG1       -0.0614
     11 C          -6.6036   -1.5434   -0.4486 C.3     1  LIG1       -0.0295
     12 C          -5.4863   -0.4901   -0.2497 C.3     1  LIG1        0.0290
     13 C          -7.8715   -1.0446    0.2740 C.3     1  LIG1       -0.0596
     14 C          -6.9418   -1.7107   -1.9413 C.3     1  LIG1       -0.0596
     15 C          -6.2128   -2.9081    0.1387 C.3     1  LIG1       -0.0596
     16 C          -4.0892   -0.9337   -0.6772 C.2     1  LIG1        0.2161
     17 C          -1.7108   -1.2154   -0.1643 C.3     1  LIG1        0.0400
     18 C          -1.0664    0.0436   -0.7442 C.ar    1  LIG1       -0.0216
     19 C           0.1202   -0.0148   -1.5291 C.ar    1  LIG1       -0.0113
     20 C           0.8343   -1.2874   -1.8150 C.ar    1  LIG1        0.0090
     21 C          -3.3067   -1.0239    1.7330 C.3     1  LIG1        0.0035
     22 C          -1.6389    1.3083   -0.4636 C.ar    1  LIG1       -0.0442
     23 C           2.1506   -1.6076   -1.4079 C.ar    1  LIG1        0.1162
     24 C           0.6091    1.1931   -2.0647 C.ar    1  LIG1       -0.0529
     25 C          -1.1080    2.5029   -0.9641 C.ar    1  LIG1        0.0372
     26 C           0.0212    2.4286   -1.7749 C.ar    1  LIG1       -0.0489
     27 C           0.1529   -2.2763   -2.5582 C.ar    1  LIG1       -0.0521
     28 C           2.6856   -2.8939   -1.6274 C.ar    1  LIG1       -0.0345
     29 C           0.6936   -3.5495   -2.7844 C.ar    1  LIG1       -0.0611
     30 C          -1.7041    3.7986   -0.6546 C.ar    1  LIG1        0.2271
     31 C           1.9517   -3.8667   -2.2982 C.ar    1  LIG1       -0.0599
     32 C           4.6632   -0.0740   -2.8495 C.ar    1  LIG1        0.1837
     33 C           4.2976   -0.6919   -4.0752 C.ar    1  LIG1        0.0342
     34 C           5.5105   -1.0458   -4.6292 C.ar    1  LIG1        0.1390
     35 C           2.9697   -0.9017   -4.6906 C.3     1  LIG1       -0.0330
     36 C          -3.2800    5.1018    0.0352 C.ar    1  LIG1        0.1125
     37 C          -2.1944    5.8419   -0.3556 C.ar    1  LIG1        0.0663
     38 C           5.8982   -1.7432   -5.8714 C.3     1  LIG1       -0.0034
     39 H           4.2899    1.2963   -1.4459 H       1  LIG1        0.1753
     40 H          -5.4847   -0.1234    0.7795 H       1  LIG1        0.0364
     41 H          -5.7154    0.4049   -0.8453 H       1  LIG1        0.0364
     42 H          -8.1902   -0.0700   -0.1128 H       1  LIG1        0.0235
     43 H          -7.6973   -0.9365    1.3507 H       1  LIG1        0.0235
     44 H          -8.7056   -1.7435    0.1432 H       1  LIG1        0.0235
     45 H          -7.2027   -0.7494   -2.3982 H       1  LIG1        0.0235
     46 H          -7.7976   -2.3824   -2.0781 H       1  LIG1        0.0235
     47 H          -6.1054   -2.1354   -2.5042 H       1  LIG1        0.0235
     48 H          -5.9706   -2.8278    1.2034 H       1  LIG1        0.0235
     49 H          -5.3456   -3.3364   -0.3752 H       1  LIG1        0.0235
     50 H          -7.0345   -3.6272    0.0409 H       1  LIG1        0.0235
     51 H          -1.7466   -2.0061   -0.9143 H       1  LIG1        0.0514
     52 H          -1.0928   -1.5750    0.6664 H       1  LIG1        0.0514
     53 H          -4.3440   -1.2114    2.0080 H       1  LIG1        0.0429
     54 H          -2.9948   -0.0472    2.1117 H       1  LIG1        0.0429
     55 H          -2.7016   -1.8066    2.2015 H       1  LIG1        0.0429
     56 H          -2.5250    1.3680    0.1639 H       1  LIG1        0.0628
     57 H           1.4798    1.2010   -2.7137 H       1  LIG1        0.0624
     58 H           0.4579    3.3378   -2.1858 H       1  LIG1        0.0625
     59 H          -0.8398   -2.0650   -2.9612 H       1  LIG1        0.0624
     60 H           3.6880   -3.1492   -1.2835 H       1  LIG1        0.0637
     61 H           0.1162   -4.2917   -3.3317 H       1  LIG1        0.0618
     62 H           2.3721   -4.8546   -2.4571 H       1  LIG1        0.0618
     63 H           2.2043   -0.2753   -4.2328 H       1  LIG1        0.0280
     64 H           2.6680   -1.9490   -4.6089 H       1  LIG1        0.0280
     65 H           2.9939   -0.6461   -5.7556 H       1  LIG1        0.0280
     66 H          -4.2591    5.3251    0.4318 H       1  LIG1        0.1046
     67 H          -2.0758    6.9158   -0.3413 H       1  LIG1        0.0862
     68 H           6.9830   -1.7422   -6.0128 H       1  LIG1        0.0309
     69 H           5.4425   -1.2594   -6.7412 H       1  LIG1        0.0309
     70 H           5.5587   -2.7835   -5.8432 H       1  LIG1        0.0309
@<TRIPOS>BOND
     1     1     3    2
     2     1     4    2
     3     1     8    1
     4     1    23    1
     5     2    16    2
     6     5    30   ar
     7     5    36   ar
     8     6    10   ar
     9     6    34   ar
    10     7    16   am
    11     7    17    1
    12     7    21    1
    13     8    32    1
    14     9    30   ar
    15     9    37   ar
    16    10    32   ar
    17    11    12    1
    18    11    13    1
    19    11    14    1
    20    11    15    1
    21    12    16    1
    22    17    18    1
    23    18    19   ar
    24    18    22   ar
    25    19    20    1
    26    19    24   ar
    27    20    23   ar
    28    20    27   ar
    29    22    25   ar
    30    23    28   ar
    31    24    26   ar
    32    25    26   ar
    33    25    30    1
    34    27    29   ar
    35    28    31   ar
    36    29    31   ar
    37    32    33   ar
    38    33    34   ar
    39    33    35    1
    40    34    38    1
    41    36    37   ar
    42     8    39    1
    43    12    40    1
    44    12    41    1
    45    13    42    1
    46    13    43    1
    47    13    44    1
    48    14    45    1
    49    14    46    1
    50    14    47    1
    51    15    48    1
    52    15    49    1
    53    15    50    1
    54    17    51    1
    55    17    52    1
    56    21    53    1
    57    21    54    1
    58    21    55    1
    59    22    56    1
    60    24    57    1
    61    26    58    1
    62    27    59    1
    63    28    60    1
    64    29    61    1
    65    31    62    1
    66    35    63    1
    67    35    64    1
    68    35    65    1
    69    36    66    1
    70    37    67    1
    71    38    68    1
    72    38    69    1
    73    38    70    1
@<TRIPOS>MOLECULE
156690
 70 73 0 0 0
SMALL
GASTEIGER

@<TRIPOS>ATOM
      1 S           3.2857   -0.6063   -0.4944 S.O2    1  LIG1        0.0741
      2 O          -4.1893   -0.8224    0.6272 O.2     1  LIG1       -0.2756
      3 O           2.4903    0.1908    0.4168 O.2     1  LIG1       -0.1499
      4 O           4.3813   -1.3906    0.0440 O.2     1  LIG1       -0.1499
      5 O          -0.8605    4.8523   -0.6801 O.2     1  LIG1       -0.4436
      6 O           5.2398   -1.1707   -4.4575 O.2     1  LIG1       -0.3578
      7 N          -1.9944   -1.2252    1.1279 N.am    1  LIG1       -0.3002
      8 N           3.9621    0.4528   -1.6245 N.pl3   1  LIG1       -0.1965
      9 N          -2.8256    3.9327   -0.0618 N.ar    1  LIG1       -0.2175
     10 N           4.2143   -0.8650   -3.5937 N.ar    1  LIG1       -0.0614
     11 C          -5.0078   -2.0349    3.2232 C.3     1  LIG1       -0.0295
     12 C          -3.7261   -1.2034    2.9486 C.3     1  LIG1        0.0290
     13 C          -6.2837   -1.3446    2.7125 C.3     1  LIG1       -0.0596
     14 C          -4.8848   -3.4322    2.5920 C.3     1  LIG1       -0.0596
     15 C          -5.1446   -2.2010    4.7521 C.3     1  LIG1       -0.0596
     16 C          -3.3320   -1.0794    1.4754 C.2     1  LIG1        0.2161
     17 C          -1.6569   -1.2548   -0.2977 C.3     1  LIG1        0.0400
     18 C          -0.9441   -0.0018   -0.7825 C.ar    1  LIG1       -0.0216
     19 C           0.2437   -0.0411   -1.5583 C.ar    1  LIG1       -0.0113
     20 C           0.9345   -1.3062   -1.8877 C.ar    1  LIG1        0.0090
     21 C          -0.9013   -1.5387    2.0353 C.3     1  LIG1        0.0035
     22 C          -1.5449    1.2461   -0.5016 C.ar    1  LIG1       -0.0442
     23 C           2.2150   -1.6828   -1.4309 C.ar    1  LIG1        0.1162
     24 C           0.7508    1.1778   -2.0501 C.ar    1  LIG1       -0.0529
     25 C          -0.9880    2.4557   -0.9330 C.ar    1  LIG1        0.0372
     26 C           0.1613    2.4050   -1.7235 C.ar    1  LIG1       -0.0489
     27 C           0.2538   -2.2353   -2.7095 C.ar    1  LIG1       -0.0521
     28 C           2.7224   -2.9715   -1.6966 C.ar    1  LIG1       -0.0345
     29 C           0.7758   -3.5039   -2.9868 C.ar    1  LIG1       -0.0611
     30 C          -1.6217    3.7158   -0.5564 C.ar    1  LIG1        0.2271
     31 C           2.0063   -3.8756   -2.4680 C.ar    1  LIG1       -0.0599
     32 C           4.7361   -0.0667   -2.6617 C.ar    1  LIG1        0.1837
     33 C           6.1034    0.2092   -2.9248 C.ar    1  LIG1        0.0342
     34 C           6.3699   -0.5365   -4.0559 C.ar    1  LIG1        0.1390
     35 C           7.0617    1.0336   -2.1585 C.3     1  LIG1       -0.0330
     36 C          -1.6681    5.8469   -0.2200 C.ar    1  LIG1        0.1125
     37 C          -2.8639    5.2864    0.1440 C.ar    1  LIG1        0.0663
     38 C           7.5761   -0.7860   -4.8658 C.3     1  LIG1       -0.0034
     39 H           4.2992    1.2837   -1.1456 H       1  LIG1        0.1753
     40 H          -2.9221   -1.6641    3.5223 H       1  LIG1        0.0364
     41 H          -3.8465   -0.1814    3.3315 H       1  LIG1        0.0364
     42 H          -6.3280   -1.3046    1.6208 H       1  LIG1        0.0235
     43 H          -6.3595   -0.3202    3.0933 H       1  LIG1        0.0235
     44 H          -7.1790   -1.8865    3.0415 H       1  LIG1        0.0235
     45 H          -4.8574   -3.3814    1.4983 H       1  LIG1        0.0235
     46 H          -5.7327   -4.0679    2.8681 H       1  LIG1        0.0235
     47 H          -3.9690   -3.9351    2.9256 H       1  LIG1        0.0235
     48 H          -5.2411   -1.2279    5.2470 H       1  LIG1        0.0235
     49 H          -4.2706   -2.7073    5.1772 H       1  LIG1        0.0235
     50 H          -6.0277   -2.7958    5.0106 H       1  LIG1        0.0235
     51 H          -2.5544   -1.3856   -0.9158 H       1  LIG1        0.0514
     52 H          -1.0611   -2.1603   -0.4383 H       1  LIG1        0.0514
     53 H          -1.0779   -1.1539    3.0411 H       1  LIG1        0.0429
     54 H           0.0249   -1.0884    1.6699 H       1  LIG1        0.0429
     55 H          -0.7863   -2.6229    2.0730 H       1  LIG1        0.0429
     56 H          -2.4711    1.2746    0.0758 H       1  LIG1        0.0628
     57 H           1.6238    1.1812   -2.6995 H       1  LIG1        0.0624
     58 H           0.6076    3.3206   -2.1047 H       1  LIG1        0.0625
     59 H          -0.7200   -1.9771   -3.1237 H       1  LIG1        0.0624
     60 H           3.7073   -3.2660   -1.3297 H       1  LIG1        0.0637
     61 H           0.2145   -4.1954   -3.6086 H       1  LIG1        0.0618
     62 H           2.4185   -4.8576   -2.6797 H       1  LIG1        0.0618
     63 H           6.5661    1.6207   -1.3812 H       1  LIG1        0.0280
     64 H           7.5858    1.7303   -2.8217 H       1  LIG1        0.0280
     65 H           7.8090    0.3944   -1.6752 H       1  LIG1        0.0280
     66 H          -1.2562    6.8445   -0.2167 H       1  LIG1        0.1046
     67 H          -3.7428    5.7772    0.5430 H       1  LIG1        0.0862
     68 H           7.3417   -1.3658   -5.7662 H       1  LIG1        0.0309
     69 H           8.3143   -1.3508   -4.2860 H       1  LIG1        0.0309
     70 H           8.0332    0.1557   -5.1825 H       1  LIG1        0.0309
@<TRIPOS>BOND
     1     1     3    2
     2     1     4    2
     3     1     8    1
     4     1    23    1
     5     2    16    2
     6     5    30   ar
     7     5    36   ar
     8     6    10   ar
     9     6    34   ar
    10     7    16   am
    11     7    17    1
    12     7    21    1
    13     8    32    1
    14     9    30   ar
    15     9    37   ar
    16    10    32   ar
    17    11    12    1
    18    11    13    1
    19    11    14    1
    20    11    15    1
    21    12    16    1
    22    17    18    1
    23    18    19   ar
    24    18    22   ar
    25    19    20    1
    26    19    24   ar
    27    20    23   ar
    28    20    27   ar
    29    22    25   ar
    30    23    28   ar
    31    24    26   ar
    32    25    26   ar
    33    25    30    1
    34    27    29   ar
    35    28    31   ar
    36    29    31   ar
    37    32    33   ar
    38    33    34   ar
    39    33    35    1
    40    34    38    1
    41    36    37   ar
    42     8    39    1
    43    12    40    1
    44    12    41    1
    45    13    42    1
    46    13    43    1
    47    13    44    1
    48    14    45    1
    49    14    46    1
    50    14    47    1
    51    15    48    1
    52    15    49    1
    53    15    50    1
    54    17    51    1
    55    17    52    1
    56    21    53    1
    57    21    54    1
    58    21    55    1
    59    22    56    1
    60    24    57    1
    61    26    58    1
    62    27    59    1
    63    28    60    1
    64    29    61    1
    65    31    62    1
    66    35    63    1
    67    35    64    1
    68    35    65    1
    69    36    66    1
    70    37    67    1
    71    38    68    1
    72    38    69    1
    73    38    70    1
@<TRIPOS>MOLECULE
156690
 70 73 0 0 0
SMALL
GASTEIGER

@<TRIPOS>ATOM
      1 S           3.2537   -0.4513   -0.6371 S.O2    1  LIG1        0.0741
      2 O          -3.7961   -1.1390   -1.8563 O.2     1  LIG1       -0.2756
      3 O           2.4886    0.4049    0.2430 O.2     1  LIG1       -0.1499
      4 O           4.3863   -1.1804   -0.1037 O.2     1  LIG1       -0.1499
      5 O          -2.7205    3.7897    0.2835 O.2     1  LIG1       -0.4436
      6 O           6.5139   -0.6082   -3.8567 O.2     1  LIG1       -0.3578
      7 N          -3.0753   -1.0726    0.3197 N.am    1  LIG1       -0.3002
      8 N           3.8084    0.5089   -1.9334 N.pl3   1  LIG1       -0.1965
      9 N          -1.2997    4.9922   -0.9947 N.ar    1  LIG1       -0.2175
     10 N           5.9790    0.0513   -2.7666 N.ar    1  LIG1       -0.0614
     11 C          -6.5728   -1.5417   -0.4610 C.3     1  LIG1       -0.0295
     12 C          -5.4516   -0.4935   -0.2564 C.3     1  LIG1        0.0290
     13 C          -7.8419   -1.0384    0.2567 C.3     1  LIG1       -0.0596
     14 C          -6.9050   -1.7052   -1.9553 C.3     1  LIG1       -0.0596
     15 C          -6.1916   -2.9093    0.1259 C.3     1  LIG1       -0.0596
     16 C          -4.0511   -0.9461   -0.6646 C.2     1  LIG1        0.2161
     17 C          -1.6794   -1.2270   -0.1151 C.3     1  LIG1        0.0400
     18 C          -1.0400    0.0282   -0.7072 C.ar    1  LIG1       -0.0216
     19 C           0.1208   -0.0332   -1.5276 C.ar    1  LIG1       -0.0113
     20 C           0.8336   -1.3043   -1.8172 C.ar    1  LIG1        0.0090
     21 C          -3.3065   -1.0553    1.7567 C.3     1  LIG1        0.0035
     22 C          -1.5948    1.2943   -0.3995 C.ar    1  LIG1       -0.0442
     23 C           2.1535   -1.6172   -1.4188 C.ar    1  LIG1        0.1162
     24 C           0.5884    1.1716   -2.0891 C.ar    1  LIG1       -0.0529
     25 C          -1.0816    2.4874   -0.9225 C.ar    1  LIG1        0.0372
     26 C           0.0072    2.4075   -1.7866 C.ar    1  LIG1       -0.0489
     27 C           0.1495   -2.2988   -2.5511 C.ar    1  LIG1       -0.0521
     28 C           2.6924   -2.9037   -1.6364 C.ar    1  LIG1       -0.0345
     29 C           0.6922   -3.5687   -2.7764 C.ar    1  LIG1       -0.0611
     30 C          -1.6577    3.7869   -0.5873 C.ar    1  LIG1        0.2271
     31 C           1.9574   -3.8786   -2.3005 C.ar    1  LIG1       -0.0599
     32 C           4.6559   -0.0766   -2.8762 C.ar    1  LIG1        0.1837
     33 C           4.2929   -0.7065   -4.0972 C.ar    1  LIG1        0.0342
     34 C           5.5077   -1.0556   -4.6501 C.ar    1  LIG1        0.1390
     35 C           2.9652   -0.9306   -4.7081 C.3     1  LIG1       -0.0330
     36 C          -3.0372    5.1061    0.4224 C.ar    1  LIG1        0.1125
     37 C          -2.1728    5.8333   -0.3537 C.ar    1  LIG1        0.0663
     38 C           5.8981   -1.7589   -5.8881 C.3     1  LIG1       -0.0034
     39 H           4.2710    1.3012   -1.4835 H       1  LIG1        0.1753
     40 H          -5.4590   -0.1192    0.7699 H       1  LIG1        0.0364
     41 H          -5.6695    0.3990   -0.8605 H       1  LIG1        0.0364
     42 H          -8.1550   -0.0619   -0.1302 H       1  LIG1        0.0235
     43 H          -7.6722   -0.9324    1.3342 H       1  LIG1        0.0235
     44 H          -8.6782   -1.7338    0.1210 H       1  LIG1        0.0235
     45 H          -7.1653   -0.7429   -2.4106 H       1  LIG1        0.0235
     46 H          -7.7594   -2.3773   -2.0975 H       1  LIG1        0.0235
     47 H          -6.0653   -2.1269   -2.5159 H       1  LIG1        0.0235
     48 H          -5.9555   -2.8325    1.1922 H       1  LIG1        0.0235
     49 H          -5.3236   -3.3405   -0.3839 H       1  LIG1        0.0235
     50 H          -7.0160   -3.6244    0.0219 H       1  LIG1        0.0235
     51 H          -1.7003   -2.0336   -0.8498 H       1  LIG1        0.0514
     52 H          -1.0690   -1.5655    0.7298 H       1  LIG1        0.0514
     53 H          -4.3519   -1.2240    2.0135 H       1  LIG1        0.0429
     54 H          -2.9790   -0.0929    2.1575 H       1  LIG1        0.0429
     55 H          -2.7260   -1.8592    2.2200 H       1  LIG1        0.0429
     56 H          -2.4562    1.3538    0.2599 H       1  LIG1        0.0628
     57 H           1.4366    1.1747   -2.7664 H       1  LIG1        0.0624
     58 H           0.4261    3.3137   -2.2219 H       1  LIG1        0.0625
     59 H          -0.8493   -2.0920   -2.9412 H       1  LIG1        0.0624
     60 H           3.6990   -3.1520   -1.2998 H       1  LIG1        0.0637
     61 H           0.1151   -4.3158   -3.3159 H       1  LIG1        0.0618
     62 H           2.3815   -4.8671   -2.4596 H       1  LIG1        0.0618
     63 H           2.1957   -0.3091   -4.2508 H       1  LIG1        0.0280
     64 H           2.6729   -1.9800   -4.6212 H       1  LIG1        0.0280
     65 H           2.9844   -0.6789   -5.7740 H       1  LIG1        0.0280
     66 H          -3.8612    5.3387    1.0796 H       1  LIG1        0.1046
     67 H          -2.1313    6.9056   -0.4834 H       1  LIG1        0.0862
     68 H           6.9831   -1.7582   -6.0275 H       1  LIG1        0.0309
     69 H           5.4439   -1.2797   -6.7612 H       1  LIG1        0.0309
     70 H           5.5591   -2.7993   -5.8556 H       1  LIG1        0.0309
@<TRIPOS>BOND
     1     1     3    2
     2     1     4    2
     3     1     8    1
     4     1    23    1
     5     2    16    2
     6     5    30   ar
     7     5    36   ar
     8     6    10   ar
     9     6    34   ar
    10     7    16   am
    11     7    17    1
    12     7    21    1
    13     8    32    1
    14     9    30   ar
    15     9    37   ar
    16    10    32   ar
    17    11    12    1
    18    11    13    1
    19    11    14    1
    20    11    15    1
    21    12    16    1
    22    17    18    1
    23    18    19   ar
    24    18    22   ar
    25    19    20    1
    26    19    24   ar
    27    20    23   ar
    28    20    27   ar
    29    22    25   ar
    30    23    28   ar
    31    24    26   ar
    32    25    26   ar
    33    25    30    1
    34    27    29   ar
    35    28    31   ar
    36    29    31   ar
    37    32    33   ar
    38    33    34   ar
    39    33    35    1
    40    34    38    1
    41    36    37   ar
    42     8    39    1
    43    12    40    1
    44    12    41    1
    45    13    42    1
    46    13    43    1
    47    13    44    1
    48    14    45    1
    49    14    46    1
    50    14    47    1
    51    15    48    1
    52    15    49    1
    53    15    50    1
    54    17    51    1
    55    17    52    1
    56    21    53    1
    57    21    54    1
    58    21    55    1
    59    22    56    1
    60    24    57    1
    61    26    58    1
    62    27    59    1
    63    28    60    1
    64    29    61    1
    65    31    62    1
    66    35    63    1
    67    35    64    1
    68    35    65    1
    69    36    66    1
    70    37    67    1
    71    38    68    1
    72    38    69    1
    73    38    70    1
@<TRIPOS>MOLECULE
156690
 70 73 0 0 0
SMALL
GASTEIGER

@<TRIPOS>ATOM
      1 S           3.3591   -0.1694   -0.7101 S.O2    1  LIG1        0.0741
      2 O          -3.7834   -1.0983   -1.9269 O.2     1  LIG1       -0.2756
      3 O           2.5985    0.8502   -0.0266 O.2     1  LIG1       -0.1499
      4 O           4.4452   -0.8510   -0.0399 O.2     1  LIG1       -0.1499
      5 O          -0.9618    4.9598   -0.7991 O.2     1  LIG1       -0.4436
      6 O           6.9980    1.9730   -2.7947 O.2     1  LIG1       -0.3578
      7 N          -3.0245   -1.0349    0.2353 N.am    1  LIG1       -0.3002
      8 N           3.9499    0.4054   -2.1941 N.pl3   1  LIG1       -0.1965
      9 N          -2.8764    4.0259   -0.0471 N.ar    1  LIG1       -0.2175
     10 N           6.1562    0.8813   -2.8101 N.ar    1  LIG1       -0.0614
     11 C          -6.5362   -1.5467   -0.5320 C.3     1  LIG1       -0.0295
     12 C          -5.4240   -0.4945   -0.2944 C.3     1  LIG1        0.0290
     13 C          -6.8743   -1.6635   -2.0294 C.3     1  LIG1       -0.0596
     14 C          -6.1370   -2.9285    0.0081 C.3     1  LIG1       -0.0596
     15 C          -7.8084   -1.0826    0.2069 C.3     1  LIG1       -0.0596
     16 C          -4.0211   -0.9172   -0.7299 C.2     1  LIG1        0.2161
     17 C          -1.6345   -1.1657   -0.2272 C.3     1  LIG1        0.0400
     18 C          -1.0071    0.1039   -0.8014 C.ar    1  LIG1       -0.0216
     19 C           0.1769    0.0688   -1.5932 C.ar    1  LIG1       -0.0113
     20 C           0.9463   -1.1790   -1.8235 C.ar    1  LIG1        0.0090
     21 C          -3.2302   -1.0062    1.6759 C.3     1  LIG1        0.0035
     22 C          -1.5927    1.3571   -0.5134 C.ar    1  LIG1       -0.0442
     23 C           2.2575   -1.4369   -1.3594 C.ar    1  LIG1        0.1162
     24 C           0.6187    1.2739   -2.1735 C.ar    1  LIG1       -0.0529
     25 C          -1.0816    2.5593   -1.0162 C.ar    1  LIG1        0.0372
     26 C           0.0139    2.5009   -1.8757 C.ar    1  LIG1       -0.0489
     27 C           0.3237   -2.2154   -2.5536 C.ar    1  LIG1       -0.0521
     28 C           2.8420   -2.7130   -1.5129 C.ar    1  LIG1       -0.0345
     29 C           0.9135   -3.4724   -2.7188 C.ar    1  LIG1       -0.0611
     30 C          -1.7040    3.8188   -0.6215 C.ar    1  LIG1        0.2271
     31 C           2.1639   -3.7294   -2.1767 C.ar    1  LIG1       -0.0599
     32 C           5.0284    1.2821   -2.2192 C.ar    1  LIG1        0.1837
     33 C           5.0759    2.6534   -1.8689 C.ar    1  LIG1        0.0342
     34 C           6.3483    3.0334   -2.2507 C.ar    1  LIG1        0.1390
     35 C           4.0230    3.5283   -1.3114 C.3     1  LIG1       -0.0330
     36 C          -1.7460    5.9493   -0.2881 C.ar    1  LIG1        0.1125
     37 C          -2.9123    5.3812    0.1548 C.ar    1  LIG1        0.0663
     38 C           7.0866    4.3110   -2.2382 C.3     1  LIG1       -0.0034
     39 H           4.1841   -0.4005   -2.7756 H       1  LIG1        0.1753
     40 H          -5.4318   -0.1624    0.7461 H       1  LIG1        0.0364
     41 H          -5.6555    0.4179   -0.8624 H       1  LIG1        0.0364
     42 H          -6.0360   -2.0634   -2.6076 H       1  LIG1        0.0235
     43 H          -7.1411   -0.6882   -2.4522 H       1  LIG1        0.0235
     44 H          -7.7262   -2.3348   -2.1896 H       1  LIG1        0.0235
     45 H          -5.2707   -3.3358   -0.5238 H       1  LIG1        0.0235
     46 H          -6.9562   -3.6476   -0.1095 H       1  LIG1        0.0235
     47 H          -5.8895   -2.8817    1.0737 H       1  LIG1        0.0235
     48 H          -8.1331   -0.0965   -0.1443 H       1  LIG1        0.0235
     49 H          -7.6367   -1.0135    1.2870 H       1  LIG1        0.0235
     50 H          -8.6380   -1.7815    0.0489 H       1  LIG1        0.0235
     51 H          -1.6628   -1.9487   -0.9872 H       1  LIG1        0.0514
     52 H          -1.0097   -1.5268    0.5976 H       1  LIG1        0.0514
     53 H          -4.2597   -1.2360    1.9507 H       1  LIG1        0.0429
     54 H          -2.9570   -0.0186    2.0551 H       1  LIG1        0.0429
     55 H          -2.5960   -1.7655    2.1441 H       1  LIG1        0.0429
     56 H          -2.4704    1.4124    0.1279 H       1  LIG1        0.0628
     57 H           1.4782    1.2795   -2.8400 H       1  LIG1        0.0624
     58 H           0.4252    3.4101   -2.3074 H       1  LIG1        0.0625
     59 H          -0.6614   -2.0500   -2.9947 H       1  LIG1        0.0624
     60 H           3.8439   -2.9194   -1.1369 H       1  LIG1        0.0637
     61 H           0.3846   -4.2502   -3.2649 H       1  LIG1        0.0618
     62 H           2.6228   -4.7083   -2.2930 H       1  LIG1        0.0618
     63 H           3.0494    3.0373   -1.2902 H       1  LIG1        0.0280
     64 H           3.9148    4.4297   -1.9250 H       1  LIG1        0.0280
     65 H           4.2794    3.8366   -0.2934 H       1  LIG1        0.0280
     66 H          -1.3420    6.9498   -0.3145 H       1  LIG1        0.1046
     67 H          -3.7636    5.8667    0.6109 H       1  LIG1        0.0862
     68 H           8.1404    4.1656   -2.4968 H       1  LIG1        0.0309
     69 H           7.0410    4.7749   -1.2487 H       1  LIG1        0.0309
     70 H           6.6536    5.0049   -2.9657 H       1  LIG1        0.0309
@<TRIPOS>BOND
     1     1     3    2
     2     1     4    2
     3     1     8    1
     4     1    23    1
     5     2    16    2
     6     5    30   ar
     7     5    36   ar
     8     6    10   ar
     9     6    34   ar
    10     7    16   am
    11     7    17    1
    12     7    21    1
    13     8    32    1
    14     9    30   ar
    15     9    37   ar
    16    10    32   ar
    17    11    12    1
    18    11    13    1
    19    11    14    1
    20    11    15    1
    21    12    16    1
    22    17    18    1
    23    18    19   ar
    24    18    22   ar
    25    19    20    1
    26    19    24   ar
    27    20    23   ar
    28    20    27   ar
    29    22    25   ar
    30    23    28   ar
    31    24    26   ar
    32    25    26   ar
    33    25    30    1
    34    27    29   ar
    35    28    31   ar
    36    29    31   ar
    37    32    33   ar
    38    33    34   ar
    39    33    35    1
    40    34    38    1
    41    36    37   ar
    42     8    39    1
    43    12    40    1
    44    12    41    1
    45    13    42    1
    46    13    43    1
    47    13    44    1
    48    14    45    1
    49    14    46    1
    50    14    47    1
    51    15    48    1
    52    15    49    1
    53    15    50    1
    54    17    51    1
    55    17    52    1
    56    21    53    1
    57    21    54    1
    58    21    55    1
    59    22    56    1
    60    24    57    1
    61    26    58    1
    62    27    59    1
    63    28    60    1
    64    29    61    1
    65    31    62    1
    66    35    63    1
    67    35    64    1
    68    35    65    1
    69    36    66    1
    70    37    67    1
    71    38    68    1
    72    38    69    1
    73    38    70    1
@<TRIPOS>MOLECULE
156690
 70 73 0 0 0
SMALL
GASTEIGER

@<TRIPOS>ATOM
      1 S           3.3254   -0.1479   -0.7114 S.O2    1  LIG1        0.0741
      2 O          -3.8053   -1.0867   -1.9130 O.2     1  LIG1       -0.2756
      3 O           2.5639    0.8611   -0.0215 O.2     1  LIG1       -0.1499
      4 O           4.4090   -0.8233   -0.0272 O.2     1  LIG1       -0.1499
      5 O          -2.9932    3.8306   -0.1957 O.2     1  LIG1       -0.4436
      6 O           6.9668    1.9998   -2.7785 O.2     1  LIG1       -0.3578
      7 N          -3.0377   -1.0197    0.2461 N.am    1  LIG1       -0.3002
      8 N           3.9202    0.4290   -2.1862 N.pl3   1  LIG1       -0.1965
      9 N          -1.2490    5.0782   -0.9045 N.ar    1  LIG1       -0.2175
     10 N           6.1257    0.9087   -2.7996 N.ar    1  LIG1       -0.0614
     11 C          -6.5523   -1.5575   -0.5198 C.3     1  LIG1       -0.0295
     12 C          -5.4448   -0.5030   -0.2724 C.3     1  LIG1        0.0290
     13 C          -6.8845   -1.6694   -2.0189 C.3     1  LIG1       -0.0596
     14 C          -6.1501   -2.9398    0.0165 C.3     1  LIG1       -0.0596
     15 C          -7.8289   -1.1004    0.2161 C.3     1  LIG1       -0.0596
     16 C          -4.0404   -0.9133   -0.7143 C.2     1  LIG1        0.2161
     17 C          -1.6489   -1.1462   -0.2223 C.3     1  LIG1        0.0400
     18 C          -1.0318    0.1213   -0.8129 C.ar    1  LIG1       -0.0216
     19 C           0.1534    0.0821   -1.6030 C.ar    1  LIG1       -0.0113
     20 C           0.9250   -1.1661   -1.8242 C.ar    1  LIG1        0.0090
     21 C          -3.2383   -1.0178    1.6874 C.3     1  LIG1        0.0035
     22 C          -1.6299    1.3743   -0.5449 C.ar    1  LIG1       -0.0442
     23 C           2.2346   -1.4214   -1.3553 C.ar    1  LIG1        0.1162
     24 C           0.5910    1.2816   -2.1959 C.ar    1  LIG1       -0.0529
     25 C          -1.1329    2.5713   -1.0752 C.ar    1  LIG1        0.0372
     26 C          -0.0267    2.5064   -1.9212 C.ar    1  LIG1       -0.0489
     27 C           0.3047   -2.2061   -2.5513 C.ar    1  LIG1       -0.0521
     28 C           2.8211   -2.6962   -1.5050 C.ar    1  LIG1       -0.0345
     29 C           0.8969   -3.4622   -2.7132 C.ar    1  LIG1       -0.0611
     30 C          -1.7364    3.8599   -0.7500 C.ar    1  LIG1        0.2271
     31 C           2.1459   -3.7144   -2.1692 C.ar    1  LIG1       -0.0599
     32 C           4.9967    1.3090   -2.2089 C.ar    1  LIG1        0.1837
     33 C           5.0441    2.6770   -1.8528 C.ar    1  LIG1        0.0342
     34 C           6.3172    3.0582   -2.2309 C.ar    1  LIG1        0.1390
     35 C           3.9893    3.5493   -1.2934 C.3     1  LIG1       -0.0330
     36 C          -3.2998    5.1406    0.0090 C.ar    1  LIG1        0.1125
     37 C          -2.2342    5.8947   -0.4093 C.ar    1  LIG1        0.0663
     38 C           7.0566    4.3352   -2.2111 C.3     1  LIG1       -0.0034
     39 H           4.1522   -0.3718   -2.7719 H       1  LIG1        0.1753
     40 H          -5.4534   -0.1814    0.7712 H       1  LIG1        0.0364
     41 H          -5.6812    0.4139   -0.8310 H       1  LIG1        0.0364
     42 H          -6.0444   -2.0678   -2.5953 H       1  LIG1        0.0235
     43 H          -7.1494   -0.6926   -2.4395 H       1  LIG1        0.0235
     44 H          -7.7360   -2.3399   -2.1845 H       1  LIG1        0.0235
     45 H          -5.2794   -3.3412   -0.5128 H       1  LIG1        0.0235
     46 H          -6.9657   -3.6617   -0.1080 H       1  LIG1        0.0235
     47 H          -5.9078   -2.8963    1.0835 H       1  LIG1        0.0235
     48 H          -8.1553   -0.1140   -0.1327 H       1  LIG1        0.0235
     49 H          -7.6616   -1.0348    1.2971 H       1  LIG1        0.0235
     50 H          -8.6556   -1.8013    0.0522 H       1  LIG1        0.0235
     51 H          -1.6757   -1.9377   -0.9737 H       1  LIG1        0.0514
     52 H          -1.0176   -1.4933    0.6035 H       1  LIG1        0.0514
     53 H          -4.2679   -1.2449    1.9638 H       1  LIG1        0.0429
     54 H          -2.9547   -0.0394    2.0828 H       1  LIG1        0.0429
     55 H          -2.6077   -1.7906    2.1379 H       1  LIG1        0.0429
     56 H          -2.5048    1.4235    0.0991 H       1  LIG1        0.0628
     57 H           1.4551    1.2859   -2.8571 H       1  LIG1        0.0624
     58 H           0.3771    3.4174   -2.3595 H       1  LIG1        0.0625
     59 H          -0.6802   -2.0440   -2.9953 H       1  LIG1        0.0624
     60 H           3.8235   -2.8996   -1.1268 H       1  LIG1        0.0637
     61 H           0.3708   -4.2415   -3.2597 H       1  LIG1        0.0618
     62 H           2.6088   -4.6935   -2.2829 H       1  LIG1        0.0618
     63 H           3.0132    3.0625   -1.2905 H       1  LIG1        0.0280
     64 H           3.8926    4.4605   -1.8946 H       1  LIG1        0.0280
     65 H           4.2363    3.8410   -0.2682 H       1  LIG1        0.0280
     66 H          -4.2664    5.3498    0.4419 H       1  LIG1        0.1046
     67 H          -2.1244    6.9695   -0.3835 H       1  LIG1        0.0862
     68 H           8.1123    4.1886   -2.4617 H       1  LIG1        0.0309
     69 H           7.0041    4.7982   -1.2216 H       1  LIG1        0.0309
     70 H           6.6302    5.0300   -2.9415 H       1  LIG1        0.0309
@<TRIPOS>BOND
     1     1     3    2
     2     1     4    2
     3     1     8    1
     4     1    23    1
     5     2    16    2
     6     5    30   ar
     7     5    36   ar
     8     6    10   ar
     9     6    34   ar
    10     7    16   am
    11     7    17    1
    12     7    21    1
    13     8    32    1
    14     9    30   ar
    15     9    37   ar
    16    10    32   ar
    17    11    12    1
    18    11    13    1
    19    11    14    1
    20    11    15    1
    21    12    16    1
    22    17    18    1
    23    18    19   ar
    24    18    22   ar
    25    19    20    1
    26    19    24   ar
    27    20    23   ar
    28    20    27   ar
    29    22    25   ar
    30    23    28   ar
    31    24    26   ar
    32    25    26   ar
    33    25    30    1
    34    27    29   ar
    35    28    31   ar
    36    29    31   ar
    37    32    33   ar
    38    33    34   ar
    39    33    35    1
    40    34    38    1
    41    36    37   ar
    42     8    39    1
    43    12    40    1
    44    12    41    1
    45    13    42    1
    46    13    43    1
    47    13    44    1
    48    14    45    1
    49    14    46    1
    50    14    47    1
    51    15    48    1
    52    15    49    1
    53    15    50    1
    54    17    51    1
    55    17    52    1
    56    21    53    1
    57    21    54    1
    58    21    55    1
    59    22    56    1
    60    24    57    1
    61    26    58    1
    62    27    59    1
    63    28    60    1
    64    29    61    1
    65    31    62    1
    66    35    63    1
    67    35    64    1
    68    35    65    1
    69    36    66    1
    70    37    67    1
    71    38    68    1
    72    38    69    1
    73    38    70    1
@<TRIPOS>MOLECULE
156690
 70 73 0 0 0
SMALL
GASTEIGER

@<TRIPOS>ATOM
      1 S           3.3126   -0.2983   -0.5579 S.O2    1  LIG1        0.0741
      2 O          -3.8247   -1.0817   -1.9232 O.2     1  LIG1       -0.2756
      3 O           2.5460    0.6737    0.1779 O.2     1  LIG1       -0.1499
      4 O           4.3845   -1.0451    0.0739 O.2     1  LIG1       -0.1499
      5 O          -2.9888    3.8118   -0.1609 O.2     1  LIG1       -0.4436
      6 O           6.2989    2.9055   -1.7058 O.2     1  LIG1       -0.3578
      7 N          -3.0518   -1.0419    0.2344 N.am    1  LIG1       -0.3002
      8 N           3.9339    0.3356   -2.0015 N.pl3   1  LIG1       -0.1965
      9 N          -1.2337    5.0715   -0.8170 N.ar    1  LIG1       -0.2175
     10 N           5.0594    2.3643   -1.4159 N.ar    1  LIG1       -0.0614
     11 C          -6.5634   -1.5577   -0.5173 C.3     1  LIG1       -0.0295
     12 C          -5.4551   -0.5034   -0.2732 C.3     1  LIG1        0.0290
     13 C          -6.8986   -1.6705   -2.0155 C.3     1  LIG1       -0.0596
     14 C          -6.1592   -2.9397    0.0192 C.3     1  LIG1       -0.0596
     15 C          -7.8373   -1.0999    0.2219 C.3     1  LIG1       -0.0596
     16 C          -4.0543   -0.9165   -0.7223 C.2     1  LIG1        0.2161
     17 C          -1.6662   -1.1700   -0.2407 C.3     1  LIG1        0.0400
     18 C          -1.0281    0.1063   -0.7864 C.ar    1  LIG1       -0.0216
     19 C           0.1805    0.0726   -1.5404 C.ar    1  LIG1       -0.0113
     20 C           0.9202   -1.1898   -1.7947 C.ar    1  LIG1        0.0090
     21 C          -3.2420   -1.0163    1.6778 C.3     1  LIG1        0.0035
     22 C          -1.6265    1.3580   -0.5137 C.ar    1  LIG1       -0.0442
     23 C           2.2038   -1.5117   -1.2929 C.ar    1  LIG1        0.1162
     24 C           0.6665    1.2858   -2.0642 C.ar    1  LIG1       -0.0529
     25 C          -1.0962    2.5643   -0.9915 C.ar    1  LIG1        0.0372
     26 C           0.0529    2.5100   -1.7775 C.ar    1  LIG1       -0.0489
     27 C           0.2937   -2.1740   -2.5887 C.ar    1  LIG1       -0.0521
     28 C           2.7556   -2.7974   -1.4814 C.ar    1  LIG1       -0.0345
     29 C           0.8506   -3.4407   -2.7885 C.ar    1  LIG1       -0.0611
     30 C          -1.7150    3.8493   -0.6767 C.ar    1  LIG1        0.2271
     31 C           2.0716   -3.7619   -2.2151 C.ar    1  LIG1       -0.0599
     32 C           5.0616    1.1456   -1.9536 C.ar    1  LIG1        0.1837
     33 C           6.3024    0.8486   -2.5806 C.ar    1  LIG1        0.0342
     34 C           7.0329    2.0055   -2.4096 C.ar    1  LIG1        0.1390
     35 C           6.7457   -0.3961   -3.2464 C.3     1  LIG1       -0.0330
     36 C          -3.3103    5.1201    0.0342 C.ar    1  LIG1        0.1125
     37 C          -2.2368    5.8811   -0.3531 C.ar    1  LIG1        0.0663
     38 C           8.3844    2.4309   -2.8213 C.3     1  LIG1       -0.0034
     39 H           3.9627   -0.3855   -2.7185 H       1  LIG1        0.1753
     40 H          -5.4580   -0.1840    0.7708 H       1  LIG1        0.0364
     41 H          -5.6929    0.4145   -0.8297 H       1  LIG1        0.0364
     42 H          -6.0604   -2.0721   -2.5925 H       1  LIG1        0.0235
     43 H          -7.1612   -0.6933   -2.4366 H       1  LIG1        0.0235
     44 H          -7.7521   -2.3387   -2.1789 H       1  LIG1        0.0235
     45 H          -5.2906   -3.3419   -0.5129 H       1  LIG1        0.0235
     46 H          -6.9754   -3.6619   -0.1020 H       1  LIG1        0.0235
     47 H          -5.9134   -2.8956    1.0849 H       1  LIG1        0.0235
     48 H          -8.1641   -0.1133   -0.1260 H       1  LIG1        0.0235
     49 H          -7.6669   -1.0342    1.3026 H       1  LIG1        0.0235
     50 H          -8.6648   -1.8005    0.0604 H       1  LIG1        0.0235
     51 H          -1.7030   -1.9333   -1.0224 H       1  LIG1        0.0514
     52 H          -1.0412   -1.5598    0.5701 H       1  LIG1        0.0514
     53 H          -4.2680   -1.2517    1.9618 H       1  LIG1        0.0429
     54 H          -2.9701   -0.0281    2.0547 H       1  LIG1        0.0429
     55 H          -2.6000   -1.7733    2.1384 H       1  LIG1        0.0429
     56 H          -2.5288    1.4014    0.0911 H       1  LIG1        0.0628
     57 H           1.5604    1.3058   -2.6825 H       1  LIG1        0.0624
     58 H           0.4939    3.4286   -2.1616 H       1  LIG1        0.0625
     59 H          -0.6718   -1.9594   -3.0507 H       1  LIG1        0.0624
     60 H           3.7334   -3.0526   -1.0756 H       1  LIG1        0.0637
     61 H           0.3167   -4.1774   -3.3827 H       1  LIG1        0.0618
     62 H           2.5023   -4.7503   -2.3561 H       1  LIG1        0.0618
     63 H           5.9792   -1.1768   -3.2101 H       1  LIG1        0.0280
     64 H           7.6392   -0.7916   -2.7510 H       1  LIG1        0.0280
     65 H           6.9901   -0.2098   -4.2961 H       1  LIG1        0.0280
     66 H          -4.2907    5.3233    0.4368 H       1  LIG1        0.1046
     67 H          -2.1343    6.9565   -0.3236 H       1  LIG1        0.0862
     68 H           8.5031    3.5156   -2.7473 H       1  LIG1        0.0309
     69 H           8.5792    2.1438   -3.8557 H       1  LIG1        0.0309
     70 H           9.1419    1.9573   -2.1875 H       1  LIG1        0.0309
@<TRIPOS>BOND
     1     1     3    2
     2     1     4    2
     3     1     8    1
     4     1    23    1
     5     2    16    2
     6     5    30   ar
     7     5    36   ar
     8     6    10   ar
     9     6    34   ar
    10     7    16   am
    11     7    17    1
    12     7    21    1
    13     8    32    1
    14     9    30   ar
    15     9    37   ar
    16    10    32   ar
    17    11    12    1
    18    11    13    1
    19    11    14    1
    20    11    15    1
    21    12    16    1
    22    17    18    1
    23    18    19   ar
    24    18    22   ar
    25    19    20    1
    26    19    24   ar
    27    20    23   ar
    28    20    27   ar
    29    22    25   ar
    30    23    28   ar
    31    24    26   ar
    32    25    26   ar
    33    25    30    1
    34    27    29   ar
    35    28    31   ar
    36    29    31   ar
    37    32    33   ar
    38    33    34   ar
    39    33    35    1
    40    34    38    1
    41    36    37   ar
    42     8    39    1
    43    12    40    1
    44    12    41    1
    45    13    42    1
    46    13    43    1
    47    13    44    1
    48    14    45    1
    49    14    46    1
    50    14    47    1
    51    15    48    1
    52    15    49    1
    53    15    50    1
    54    17    51    1
    55    17    52    1
    56    21    53    1
    57    21    54    1
    58    21    55    1
    59    22    56    1
    60    24    57    1
    61    26    58    1
    62    27    59    1
    63    28    60    1
    64    29    61    1
    65    31    62    1
    66    35    63    1
    67    35    64    1
    68    35    65    1
    69    36    66    1
    70    37    67    1
    71    38    68    1
    72    38    69    1
    73    38    70    1
@<TRIPOS>MOLECULE
156690
 70 73 0 0 0
SMALL
GASTEIGER

@<TRIPOS>ATOM
      1 S           3.2812   -0.6094   -0.4920 S.O2    1  LIG1        0.0741
      2 O          -4.1837   -0.7667    0.6373 O.2     1  LIG1       -0.2756
      3 O           2.4830    0.1824    0.4192 O.2     1  LIG1       -0.1499
      4 O           4.3761   -1.3958    0.0452 O.2     1  LIG1       -0.1499
      5 O          -2.9134    3.7025   -0.1590 O.2     1  LIG1       -0.4436
      6 O           5.2354   -1.1696   -4.4557 O.2     1  LIG1       -0.3578
      7 N          -1.9972   -1.2271    1.1269 N.am    1  LIG1       -0.3002
      8 N           3.9563    0.4497   -1.6227 N.pl3   1  LIG1       -0.1965
      9 N          -1.1419    4.9547   -0.7858 N.ar    1  LIG1       -0.2175
     10 N           4.2092   -0.8674   -3.5917 N.ar    1  LIG1       -0.0614
     11 C          -5.0029   -2.0299    3.2192 C.3     1  LIG1       -0.0295
     12 C          -3.7263   -1.1888    2.9519 C.3     1  LIG1        0.0290
     13 C          -6.2815   -1.3469    2.7040 C.3     1  LIG1       -0.0596
     14 C          -4.8671   -3.4245    2.5840 C.3     1  LIG1       -0.0596
     15 C          -5.1450   -2.2011    4.7466 C.3     1  LIG1       -0.0596
     16 C          -3.3300   -1.0543    1.4796 C.2     1  LIG1        0.2161
     17 C          -1.6625   -1.2586   -0.2973 C.3     1  LIG1        0.0400
     18 C          -0.9535   -0.0045   -0.7908 C.ar    1  LIG1       -0.0216
     19 C           0.2381   -0.0445   -1.5607 C.ar    1  LIG1       -0.0113
     20 C           0.9300   -1.3104   -1.8883 C.ar    1  LIG1        0.0090
     21 C          -0.9037   -1.5512    2.0332 C.3     1  LIG1        0.0035
     22 C          -1.5663    1.2398   -0.5249 C.ar    1  LIG1       -0.0442
     23 C           2.2093   -1.6855   -1.4274 C.ar    1  LIG1        0.1162
     24 C           0.7429    1.1723   -2.0564 C.ar    1  LIG1       -0.0529
     25 C          -1.0199    2.4485   -0.9749 C.ar    1  LIG1        0.0372
     26 C           0.1401    2.3978   -1.7481 C.ar    1  LIG1       -0.0489
     27 C           0.2507   -2.2388   -2.7089 C.ar    1  LIG1       -0.0521
     28 C           2.7211   -2.9721   -1.6965 C.ar    1  LIG1       -0.0345
     29 C           0.7733   -3.5048   -2.9898 C.ar    1  LIG1       -0.0611
     30 C          -1.6354    3.7341   -0.6569 C.ar    1  LIG1        0.2271
     31 C           2.0036   -3.8788   -2.4714 C.ar    1  LIG1       -0.0599
     32 C           4.7297   -0.0639   -2.6585 C.ar    1  LIG1        0.1837
     33 C           6.0953    0.2144   -2.9255 C.ar    1  LIG1        0.0342
     34 C           6.3635   -0.5314   -4.0568 C.ar    1  LIG1        0.1390
     35 C           7.0528    1.0414   -2.1609 C.3     1  LIG1       -0.0330
     36 C          -3.2318    5.0121    0.0370 C.ar    1  LIG1        0.1125
     37 C          -2.1506    5.7684   -0.3337 C.ar    1  LIG1        0.0663
     38 C           7.5694   -0.7798   -4.8692 C.3     1  LIG1       -0.0034
     39 H           4.2826    1.2877   -1.1472 H       1  LIG1        0.1753
     40 H          -2.9208   -1.6437    3.5289 H       1  LIG1        0.0364
     41 H          -3.8546   -0.1687    3.3390 H       1  LIG1        0.0364
     42 H          -6.3210   -1.3059    1.6124 H       1  LIG1        0.0235
     43 H          -6.3646   -0.3237    3.0860 H       1  LIG1        0.0235
     44 H          -7.1741   -1.8947    3.0287 H       1  LIG1        0.0235
     45 H          -4.8350   -3.3693    1.4902 H       1  LIG1        0.0235
     46 H          -5.7139   -4.0658    2.8533 H       1  LIG1        0.0235
     47 H          -3.9514   -3.9221    2.9204 H       1  LIG1        0.0235
     48 H          -5.2493   -1.2302    5.2439 H       1  LIG1        0.0235
     49 H          -4.2700   -2.7038    5.1739 H       1  LIG1        0.0235
     50 H          -6.0261   -2.8021    4.9997 H       1  LIG1        0.0235
     51 H          -2.5623   -1.3936   -0.9110 H       1  LIG1        0.0514
     52 H          -1.0651   -2.1646   -0.4395 H       1  LIG1        0.0514
     53 H          -1.0753   -1.1779    3.0422 H       1  LIG1        0.0429
     54 H           0.0250   -1.1031    1.6673 H       1  LIG1        0.0429
     55 H          -0.7928   -2.6401    2.0560 H       1  LIG1        0.0429
     56 H          -2.4928    1.2601    0.0485 H       1  LIG1        0.0628
     57 H           1.6219    1.1785   -2.6989 H       1  LIG1        0.0624
     58 H           0.5797    3.3181   -2.1285 H       1  LIG1        0.0625
     59 H          -0.7217   -1.9796   -3.1281 H       1  LIG1        0.0624
     60 H           3.7044   -3.2678   -1.3316 H       1  LIG1        0.0637
     61 H           0.2138   -4.1969   -3.6124 H       1  LIG1        0.0618
     62 H           2.4180   -4.8584   -2.6845 H       1  LIG1        0.0618
     63 H           6.5560    1.6311   -1.3855 H       1  LIG1        0.0280
     64 H           7.5777    1.7372   -2.8261 H       1  LIG1        0.0280
     65 H           7.8009    0.4042   -1.6760 H       1  LIG1        0.0280
     66 H          -4.2166    5.2168    0.4271 H       1  LIG1        0.1046
     67 H          -2.0450    6.8434   -0.3037 H       1  LIG1        0.0862
     68 H           7.3331   -1.3547   -5.7700 H       1  LIG1        0.0309
     69 H           8.3063   -1.3469   -4.2907 H       1  LIG1        0.0309
     70 H           8.0271    0.1645   -5.1811 H       1  LIG1        0.0309
@<TRIPOS>BOND
     1     1     3    2
     2     1     4    2
     3     1     8    1
     4     1    23    1
     5     2    16    2
     6     5    30   ar
     7     5    36   ar
     8     6    10   ar
     9     6    34   ar
    10     7    16   am
    11     7    17    1
    12     7    21    1
    13     8    32    1
    14     9    30   ar
    15     9    37   ar
    16    10    32   ar
    17    11    12    1
    18    11    13    1
    19    11    14    1
    20    11    15    1
    21    12    16    1
    22    17    18    1
    23    18    19   ar
    24    18    22   ar
    25    19    20    1
    26    19    24   ar
    27    20    23   ar
    28    20    27   ar
    29    22    25   ar
    30    23    28   ar
    31    24    26   ar
    32    25    26   ar
    33    25    30    1
    34    27    29   ar
    35    28    31   ar
    36    29    31   ar
    37    32    33   ar
    38    33    34   ar
    39    33    35    1
    40    34    38    1
    41    36    37   ar
    42     8    39    1
    43    12    40    1
    44    12    41    1
    45    13    42    1
    46    13    43    1
    47    13    44    1
    48    14    45    1
    49    14    46    1
    50    14    47    1
    51    15    48    1
    52    15    49    1
    53    15    50    1
    54    17    51    1
    55    17    52    1
    56    21    53    1
    57    21    54    1
    58    21    55    1
    59    22    56    1
    60    24    57    1
    61    26    58    1
    62    27    59    1
    63    28    60    1
    64    29    61    1
    65    31    62    1
    66    35    63    1
    67    35    64    1
    68    35    65    1
    69    36    66    1
    70    37    67    1
    71    38    68    1
    72    38    69    1
    73    38    70    1
@<TRIPOS>MOLECULE
156690
 70 73 0 0 0
SMALL
GASTEIGER

@<TRIPOS>ATOM
      1 S           3.2731   -0.4486   -0.6261 S.O2    1  LIG1        0.0741
      2 O          -3.8164   -1.1183   -1.8796 O.2     1  LIG1       -0.2756
      3 O           2.5106    0.4170    0.2499 O.2     1  LIG1       -0.1499
      4 O           4.3997   -1.1794   -0.0886 O.2     1  LIG1       -0.1499
      5 O          -1.0187    4.9181   -0.9338 O.2     1  LIG1       -0.4436
      6 O           6.5238   -0.6272   -3.8610 O.2     1  LIG1       -0.3578
      7 N          -3.0881   -1.0510    0.2947 N.am    1  LIG1       -0.3002
      8 N           3.8364    0.5072   -1.9230 N.pl3   1  LIG1       -0.1965
      9 N          -2.8033    3.9967    0.1000 N.ar    1  LIG1       -0.2175
     10 N           5.9985    0.0334   -2.7670 N.ar    1  LIG1       -0.0614
     11 C          -6.5845   -1.5231   -0.4666 C.3     1  LIG1       -0.0295
     12 C          -5.4663   -0.4684   -0.2751 C.3     1  LIG1        0.0290
     13 C          -7.8513   -1.0229    0.2576 C.3     1  LIG1       -0.0596
     14 C          -6.9262   -1.6950   -1.9579 C.3     1  LIG1       -0.0596
     15 C          -6.1930   -2.8865    0.1234 C.3     1  LIG1       -0.0596
     16 C          -4.0671   -0.9202   -0.6864 C.2     1  LIG1        0.2161
     17 C          -1.6959   -1.2122   -0.1468 C.3     1  LIG1        0.0400
     18 C          -1.0432    0.0413   -0.7276 C.ar    1  LIG1       -0.0216
     19 C           0.1353   -0.0216   -1.5233 C.ar    1  LIG1       -0.0113
     20 C           0.8486   -1.2952   -1.8065 C.ar    1  LIG1        0.0090
     21 C          -3.3100   -0.9977    1.7321 C.3     1  LIG1        0.0035
     22 C          -1.5999    1.3090   -0.4345 C.ar    1  LIG1       -0.0442
     23 C           2.1670   -1.6097   -1.4043 C.ar    1  LIG1        0.1162
     24 C           0.6201    1.1842   -2.0691 C.ar    1  LIG1       -0.0529
     25 C          -1.0665    2.5031   -0.9343 C.ar    1  LIG1        0.0372
     26 C           0.0428    2.4238   -1.7717 C.ar    1  LIG1       -0.0489
     27 C           0.1660   -2.2910   -2.5412 C.ar    1  LIG1       -0.0521
     28 C           2.7018   -2.8994   -1.6159 C.ar    1  LIG1       -0.0345
     29 C           0.7051   -3.5635   -2.7600 C.ar    1  LIG1       -0.0611
     30 C          -1.6847    3.7747   -0.5691 C.ar    1  LIG1        0.2271
     31 C           1.9668   -3.8750   -2.2779 C.ar    1  LIG1       -0.0599
     32 C           4.6739   -0.0868   -2.8697 C.ar    1  LIG1        0.1837
     33 C           4.3009   -0.7135   -4.0892 C.ar    1  LIG1        0.0342
     34 C           5.5108   -1.0685   -4.6493 C.ar    1  LIG1        0.1390
     35 C           2.9691   -0.9295   -4.6942 C.3     1  LIG1       -0.0330
     36 C          -1.7941    5.9254   -0.4452 C.ar    1  LIG1        0.1125
     37 C          -2.8785    5.3635    0.1752 C.ar    1  LIG1        0.0663
     38 C           5.8906   -1.7716   -5.8905 C.3     1  LIG1       -0.0034
     39 H           4.3157    1.2884   -1.4713 H       1  LIG1        0.1753
     40 H          -5.4708   -0.0870    0.7488 H       1  LIG1        0.0364
     41 H          -5.6910    0.4189   -0.8843 H       1  LIG1        0.0364
     42 H          -8.1713   -0.0493   -0.1306 H       1  LIG1        0.0235
     43 H          -7.6750   -0.9127    1.3336 H       1  LIG1        0.0235
     44 H          -8.6855   -1.7225    0.1299 H       1  LIG1        0.0235
     45 H          -7.1947   -0.7360   -2.4157 H       1  LIG1        0.0235
     46 H          -7.7780   -2.3722   -2.0913 H       1  LIG1        0.0235
     47 H          -6.0882   -2.1145   -2.5225 H       1  LIG1        0.0235
     48 H          -5.9472   -2.8036    1.1870 H       1  LIG1        0.0235
     49 H          -5.3283   -3.3172   -0.3925 H       1  LIG1        0.0235
     50 H          -7.0157   -3.6051    0.0306 H       1  LIG1        0.0235
     51 H          -1.7270   -2.0081   -0.8925 H       1  LIG1        0.0514
     52 H          -1.0874   -1.5699    0.6915 H       1  LIG1        0.0514
     53 H          -4.3521   -1.1725    1.9986 H       1  LIG1        0.0429
     54 H          -2.9927   -0.0211    2.1057 H       1  LIG1        0.0429
     55 H          -2.7176   -1.7821    2.2133 H       1  LIG1        0.0429
     56 H          -2.4802    1.3810    0.2016 H       1  LIG1        0.0628
     57 H           1.4810    1.1852   -2.7300 H       1  LIG1        0.0624
     58 H           0.4814    3.3240   -2.1962 H       1  LIG1        0.0625
     59 H          -0.8293   -2.0831   -2.9395 H       1  LIG1        0.0624
     60 H           3.7068   -3.1494   -1.2758 H       1  LIG1        0.0637
     61 H           0.1278   -4.3102   -3.2997 H       1  LIG1        0.0618
     62 H           2.3886   -4.8655   -2.4306 H       1  LIG1        0.0618
     63 H           2.2055   -0.3027   -4.2341 H       1  LIG1        0.0280
     64 H           2.6708   -1.9771   -4.6054 H       1  LIG1        0.0280
     65 H           2.9853   -0.6789   -5.7605 H       1  LIG1        0.0280
     66 H          -1.4441    6.9323   -0.6175 H       1  LIG1        0.1046
     67 H          -3.7001    5.8621    0.6711 H       1  LIG1        0.0862
     68 H           6.9747   -1.7751   -6.0367 H       1  LIG1        0.0309
     69 H           5.4329   -1.2889   -6.7599 H       1  LIG1        0.0309
     70 H           5.5473   -2.8105   -5.8574 H       1  LIG1        0.0309
@<TRIPOS>BOND
     1     1     3    2
     2     1     4    2
     3     1     8    1
     4     1    23    1
     5     2    16    2
     6     5    30   ar
     7     5    36   ar
     8     6    10   ar
     9     6    34   ar
    10     7    16   am
    11     7    17    1
    12     7    21    1
    13     8    32    1
    14     9    30   ar
    15     9    37   ar
    16    10    32   ar
    17    11    12    1
    18    11    13    1
    19    11    14    1
    20    11    15    1
    21    12    16    1
    22    17    18    1
    23    18    19   ar
    24    18    22   ar
    25    19    20    1
    26    19    24   ar
    27    20    23   ar
    28    20    27   ar
    29    22    25   ar
    30    23    28   ar
    31    24    26   ar
    32    25    26   ar
    33    25    30    1
    34    27    29   ar
    35    28    31   ar
    36    29    31   ar
    37    32    33   ar
    38    33    34   ar
    39    33    35    1
    40    34    38    1
    41    36    37   ar
    42     8    39    1
    43    12    40    1
    44    12    41    1
    45    13    42    1
    46    13    43    1
    47    13    44    1
    48    14    45    1
    49    14    46    1
    50    14    47    1
    51    15    48    1
    52    15    49    1
    53    15    50    1
    54    17    51    1
    55    17    52    1
    56    21    53    1
    57    21    54    1
    58    21    55    1
    59    22    56    1
    60    24    57    1
    61    26    58    1
    62    27    59    1
    63    28    60    1
    64    29    61    1
    65    31    62    1
    66    35    63    1
    67    35    64    1
    68    35    65    1
    69    36    66    1
    70    37    67    1
    71    38    68    1
    72    38    69    1
    73    38    70    1
@<TRIPOS>MOLECULE
156690
 70 73 0 0 0
SMALL
GASTEIGER

@<TRIPOS>ATOM
      1 S           3.3618   -0.1591   -0.3937 S.O2    1  LIG1        0.0741
      2 O          -2.2593   -2.5474   -3.0691 O.2     1  LIG1       -0.2756
      3 O           2.3678    0.5883    0.3477 O.2     1  LIG1       -0.1499
      4 O           4.4746   -0.7686    0.3091 O.2     1  LIG1       -0.1499
      5 O          -0.9161    4.8035   -1.0741 O.2     1  LIG1       -0.4436
      6 O           4.9894   -0.4009   -4.6432 O.2     1  LIG1       -0.3578
      7 N          -2.9660   -1.4070   -1.2154 N.am    1  LIG1       -0.3002
      8 N           4.0202    0.9033   -1.5465 N.pl3   1  LIG1       -0.1965
      9 N          -2.7061    3.7985   -0.1293 N.ar    1  LIG1       -0.2175
     10 N           4.0425    0.1313   -3.7891 N.ar    1  LIG1       -0.0614
     11 C          -4.4961   -1.6594   -4.7415 C.3     1  LIG1       -0.0295
     12 C          -4.4924   -1.6646   -3.1844 C.3     1  LIG1        0.0290
     13 C          -5.9447   -1.4055   -5.2130 C.3     1  LIG1       -0.0596
     14 C          -3.6100   -0.5211   -5.2785 C.3     1  LIG1       -0.0596
     15 C          -4.0413   -2.9987   -5.3470 C.3     1  LIG1       -0.0596
     16 C          -3.1402   -1.9040   -2.5045 C.2     1  LIG1        0.2161
     17 C          -1.5938   -1.3270   -0.6538 C.3     1  LIG1        0.0400
     18 C          -0.8450   -0.0733   -1.0974 C.ar    1  LIG1       -0.0216
     19 C           0.3839   -0.0698   -1.8088 C.ar    1  LIG1       -0.0113
     20 C           1.2634   -1.2578   -1.9605 C.ar    1  LIG1        0.0090
     21 C          -4.0661   -0.8528   -0.4386 C.3     1  LIG1        0.0035
     22 C          -1.4369    1.1692   -0.7674 C.ar    1  LIG1       -0.0442
     23 C           2.5315   -1.4304   -1.3469 C.ar    1  LIG1        0.1162
     24 C           0.7950    1.1505   -2.3799 C.ar    1  LIG1       -0.0529
     25 C          -0.9329    2.3927   -1.2212 C.ar    1  LIG1        0.0372
     26 C           0.1626    2.3643   -2.0809 C.ar    1  LIG1       -0.0489
     27 C           0.8332   -2.3076   -2.7914 C.ar    1  LIG1       -0.0521
     28 C           3.2360   -2.6489   -1.4632 C.ar    1  LIG1       -0.0345
     29 C           1.5316   -3.5130   -2.9085 C.ar    1  LIG1       -0.0611
     30 C          -1.5766    3.6327   -0.7972 C.ar    1  LIG1        0.2271
     31 C           2.7247   -3.6925   -2.2271 C.ar    1  LIG1       -0.0599
     32 C           4.6809    0.3577   -2.6424 C.ar    1  LIG1        0.1837
     33 C           6.0692    0.1051   -2.7521 C.ar    1  LIG1        0.0342
     34 C           6.2004   -0.4082   -4.0270 C.ar    1  LIG1        0.1390
     35 C           7.1465    0.3686   -1.7751 C.3     1  LIG1       -0.0330
     36 C          -1.7011    5.7686   -0.5210 C.ar    1  LIG1        0.1125
     37 C          -2.7902    5.1558    0.0453 C.ar    1  LIG1        0.0663
     38 C           7.3382   -0.8984   -4.8296 C.3     1  LIG1       -0.0034
     39 H           3.2897    1.5663   -1.7901 H       1  LIG1        0.1753
     40 H          -5.1742   -2.4432   -2.8197 H       1  LIG1        0.0364
     41 H          -4.8860   -0.6965   -2.8533 H       1  LIG1        0.0364
     42 H          -6.3323   -0.4580   -4.8220 H       1  LIG1        0.0235
     43 H          -6.6142   -2.2064   -4.8786 H       1  LIG1        0.0235
     44 H          -6.0042   -1.3593   -6.3072 H       1  LIG1        0.0235
     45 H          -3.9438    0.4514   -4.8991 H       1  LIG1        0.0235
     46 H          -3.6445   -0.4777   -6.3732 H       1  LIG1        0.0235
     47 H          -2.5623   -0.6503   -4.9890 H       1  LIG1        0.0235
     48 H          -4.5576   -3.8418   -4.8760 H       1  LIG1        0.0235
     49 H          -2.9642   -3.1586   -5.2460 H       1  LIG1        0.0235
     50 H          -4.2565   -3.0366   -6.4218 H       1  LIG1        0.0235
     51 H          -1.0598   -2.2359   -0.9381 H       1  LIG1        0.0514
     52 H          -1.6575   -1.3436    0.4411 H       1  LIG1        0.0514
     53 H          -4.9837   -1.4170   -0.6280 H       1  LIG1        0.0429
     54 H          -4.2307    0.1866   -0.7329 H       1  LIG1        0.0429
     55 H          -3.8440   -0.9114    0.6296 H       1  LIG1        0.0429
     56 H          -2.3140    1.1902   -0.1233 H       1  LIG1        0.0628
     57 H           1.6333    1.1646   -3.0718 H       1  LIG1        0.0624
     58 H           0.5534    3.2852   -2.5090 H       1  LIG1        0.0625
     59 H          -0.0819   -2.1965   -3.3655 H       1  LIG1        0.0624
     60 H           4.1949   -2.7910   -0.9639 H       1  LIG1        0.0637
     61 H           1.1295   -4.3081   -3.5306 H       1  LIG1        0.0618
     62 H           3.2686   -4.6290   -2.3067 H       1  LIG1        0.0618
     63 H           6.7681    0.8640   -0.8762 H       1  LIG1        0.0280
     64 H           7.9025    1.0278   -2.2193 H       1  LIG1        0.0280
     65 H           7.6399   -0.5616   -1.4769 H       1  LIG1        0.0280
     66 H          -1.3595    6.7878   -0.6143 H       1  LIG1        0.1046
     67 H          -3.6163    5.6106    0.5726 H       1  LIG1        0.0862
     68 H           7.0004   -1.5417   -5.6488 H       1  LIG1        0.0309
     69 H           8.0292   -1.4798   -4.2120 H       1  LIG1        0.0309
     70 H           7.8890   -0.0580   -5.2624 H       1  LIG1        0.0309
@<TRIPOS>BOND
     1     1     3    2
     2     1     4    2
     3     1     8    1
     4     1    23    1
     5     2    16    2
     6     5    30   ar
     7     5    36   ar
     8     6    10   ar
     9     6    34   ar
    10     7    16   am
    11     7    17    1
    12     7    21    1
    13     8    32    1
    14     9    30   ar
    15     9    37   ar
    16    10    32   ar
    17    11    12    1
    18    11    13    1
    19    11    14    1
    20    11    15    1
    21    12    16    1
    22    17    18    1
    23    18    19   ar
    24    18    22   ar
    25    19    20    1
    26    19    24   ar
    27    20    23   ar
    28    20    27   ar
    29    22    25   ar
    30    23    28   ar
    31    24    26   ar
    32    25    26   ar
    33    25    30    1
    34    27    29   ar
    35    28    31   ar
    36    29    31   ar
    37    32    33   ar
    38    33    34   ar
    39    33    35    1
    40    34    38    1
    41    36    37   ar
    42     8    39    1
    43    12    40    1
    44    12    41    1
    45    13    42    1
    46    13    43    1
    47    13    44    1
    48    14    45    1
    49    14    46    1
    50    14    47    1
    51    15    48    1
    52    15    49    1
    53    15    50    1
    54    17    51    1
    55    17    52    1
    56    21    53    1
    57    21    54    1
    58    21    55    1
    59    22    56    1
    60    24    57    1
    61    26    58    1
    62    27    59    1
    63    28    60    1
    64    29    61    1
    65    31    62    1
    66    35    63    1
    67    35    64    1
    68    35    65    1
    69    36    66    1
    70    37    67    1
    71    38    68    1
    72    38    69    1
    73    38    70    1
@<TRIPOS>MOLECULE
156690
 70 73 0 0 0
SMALL
GASTEIGER

@<TRIPOS>ATOM
      1 S           3.3522   -0.1765   -0.7018 S.O2    1  LIG1        0.0741
      2 O          -3.8214   -1.0994   -1.9195 O.2     1  LIG1       -0.2756
      3 O           2.5894    0.8341   -0.0122 O.2     1  LIG1       -0.1499
      4 O           4.4434   -0.8616   -0.0338 O.2     1  LIG1       -0.1499
      5 O          -2.9889    3.8115   -0.2105 O.2     1  LIG1       -0.4436
      6 O           6.9816    1.9844   -2.7814 O.2     1  LIG1       -0.3578
      7 N          -3.0352   -1.0315    0.2334 N.am    1  LIG1       -0.3002
      8 N           3.9393    0.4060   -2.1833 N.pl3   1  LIG1       -0.1965
      9 N          -1.2315    5.0612   -0.8818 N.ar    1  LIG1       -0.2175
     10 N           6.1434    0.8902   -2.7980 N.ar    1  LIG1       -0.0614
     11 C          -6.5570   -1.5380   -0.4644 C.3     1  LIG1       -0.0295
     12 C          -5.4384   -0.4848   -0.2686 C.3     1  LIG1        0.0290
     13 C          -7.8225   -1.0396    0.2636 C.3     1  LIG1       -0.0596
     14 C          -6.9031   -1.7061   -1.9550 C.3     1  LIG1       -0.0596
     15 C          -6.1631   -2.9022    0.1220 C.3     1  LIG1       -0.0596
     16 C          -4.0437   -0.9166   -0.7197 C.2     1  LIG1        0.2161
     17 C          -1.6502   -1.1663   -0.2448 C.3     1  LIG1        0.0400
     18 C          -1.0225    0.1035   -0.8204 C.ar    1  LIG1       -0.0216
     19 C           0.1706    0.0658   -1.5998 C.ar    1  LIG1       -0.0113
     20 C           0.9410   -1.1832   -1.8228 C.ar    1  LIG1        0.0090
     21 C          -3.2239   -1.0093    1.6763 C.3     1  LIG1        0.0035
     22 C          -1.6216    1.3564   -0.5536 C.ar    1  LIG1       -0.0442
     23 C           2.2516   -1.4424   -1.3557 C.ar    1  LIG1        0.1162
     24 C           0.6152    1.2684   -2.1823 C.ar    1  LIG1       -0.0529
     25 C          -1.1178    2.5552   -1.0720 C.ar    1  LIG1        0.0372
     26 C          -0.0038    2.4932   -1.9073 C.ar    1  LIG1       -0.0489
     27 C           0.3205   -2.2192   -2.5553 C.ar    1  LIG1       -0.0521
     28 C           2.8356   -2.7187   -1.5081 C.ar    1  LIG1       -0.0345
     29 C           0.9104   -3.4760   -2.7205 C.ar    1  LIG1       -0.0611
     30 C          -1.7235    3.8427   -0.7453 C.ar    1  LIG1        0.2271
     31 C           2.1591   -3.7339   -2.1752 C.ar    1  LIG1       -0.0599
     32 C           5.0143    1.2870   -2.2067 C.ar    1  LIG1        0.1837
     33 C           5.0572    2.6580   -1.8553 C.ar    1  LIG1        0.0342
     34 C           6.3286    3.0423   -2.2363 C.ar    1  LIG1        0.1390
     35 C           4.0010    3.5299   -1.2981 C.3     1  LIG1       -0.0330
     36 C          -3.2958    5.1203    0.0009 C.ar    1  LIG1        0.1125
     37 C          -2.2223    5.8755   -0.3943 C.ar    1  LIG1        0.0663
     38 C           7.0637    4.3218   -2.2223 C.3     1  LIG1       -0.0034
     39 H           4.1751   -0.3961   -2.7695 H       1  LIG1        0.1753
     40 H          -5.4261   -0.1292    0.7642 H       1  LIG1        0.0364
     41 H          -5.6786    0.4156   -0.8521 H       1  LIG1        0.0364
     42 H          -8.1440   -0.0657   -0.1228 H       1  LIG1        0.0235
     43 H          -7.6440   -0.9303    1.3394 H       1  LIG1        0.0235
     44 H          -8.6567   -1.7394    0.1370 H       1  LIG1        0.0235
     45 H          -7.1631   -0.7445   -2.4120 H       1  LIG1        0.0235
     46 H          -7.7617   -2.3750   -2.0868 H       1  LIG1        0.0235
     47 H          -6.0711   -2.1348   -2.5216 H       1  LIG1        0.0235
     48 H          -5.9183   -2.8213    1.1861 H       1  LIG1        0.0235
     49 H          -5.2968   -3.3290   -0.3942 H       1  LIG1        0.0235
     50 H          -6.9844   -3.6221    0.0266 H       1  LIG1        0.0235
     51 H          -1.6890   -1.9448   -1.0092 H       1  LIG1        0.0514
     52 H          -1.0193   -1.5335    0.5725 H       1  LIG1        0.0514
     53 H          -4.2545   -1.2178    1.9631 H       1  LIG1        0.0429
     54 H          -2.9246   -0.0303    2.0584 H       1  LIG1        0.0429
     55 H          -2.6002   -1.7853    2.1309 H       1  LIG1        0.0429
     56 H          -2.5034    1.4047    0.0807 H       1  LIG1        0.0628
     57 H           1.4832    1.2750   -2.8373 H       1  LIG1        0.0624
     58 H           0.4051    3.4055   -2.3374 H       1  LIG1        0.0625
     59 H          -0.6623   -2.0528   -3.0011 H       1  LIG1        0.0624
     60 H           3.8363   -2.9257   -1.1296 H       1  LIG1        0.0637
     61 H           0.3834   -4.2526   -3.2700 H       1  LIG1        0.0618
     62 H           2.6182   -4.7126   -2.2917 H       1  LIG1        0.0618
     63 H           3.0297    3.0344   -1.2734 H       1  LIG1        0.0280
     64 H           3.8880    4.4294   -1.9136 H       1  LIG1        0.0280
     65 H           4.2582    3.8419   -0.2814 H       1  LIG1        0.0280
     66 H          -4.2685    5.3279    0.4208 H       1  LIG1        0.1046
     67 H          -2.1107    6.9499   -0.3573 H       1  LIG1        0.0862
     68 H           8.1191    4.1782   -2.4754 H       1  LIG1        0.0309
     69 H           7.0122    4.7874   -1.2340 H       1  LIG1        0.0309
     70 H           6.6328    5.0133   -2.9534 H       1  LIG1        0.0309
@<TRIPOS>BOND
     1     1     3    2
     2     1     4    2
     3     1     8    1
     4     1    23    1
     5     2    16    2
     6     5    30   ar
     7     5    36   ar
     8     6    10   ar
     9     6    34   ar
    10     7    16   am
    11     7    17    1
    12     7    21    1
    13     8    32    1
    14     9    30   ar
    15     9    37   ar
    16    10    32   ar
    17    11    12    1
    18    11    13    1
    19    11    14    1
    20    11    15    1
    21    12    16    1
    22    17    18    1
    23    18    19   ar
    24    18    22   ar
    25    19    20    1
    26    19    24   ar
    27    20    23   ar
    28    20    27   ar
    29    22    25   ar
    30    23    28   ar
    31    24    26   ar
    32    25    26   ar
    33    25    30    1
    34    27    29   ar
    35    28    31   ar
    36    29    31   ar
    37    32    33   ar
    38    33    34   ar
    39    33    35    1
    40    34    38    1
    41    36    37   ar
    42     8    39    1
    43    12    40    1
    44    12    41    1
    45    13    42    1
    46    13    43    1
    47    13    44    1
    48    14    45    1
    49    14    46    1
    50    14    47    1
    51    15    48    1
    52    15    49    1
    53    15    50    1
    54    17    51    1
    55    17    52    1
    56    21    53    1
    57    21    54    1
    58    21    55    1
    59    22    56    1
    60    24    57    1
    61    26    58    1
    62    27    59    1
    63    28    60    1
    64    29    61    1
    65    31    62    1
    66    35    63    1
    67    35    64    1
    68    35    65    1
    69    36    66    1
    70    37    67    1
    71    38    68    1
    72    38    69    1
    73    38    70    1
@<TRIPOS>MOLECULE
156690
 70 73 0 0 0
SMALL
GASTEIGER

@<TRIPOS>ATOM
      1 S           3.2511   -0.5492   -0.4938 S.O2    1  LIG1        0.0741
      2 O          -3.8207   -1.0572   -1.9513 O.2     1  LIG1       -0.2756
      3 O           2.4571    0.2850    0.3822 O.2     1  LIG1       -0.1499
      4 O           4.3413   -1.3198    0.0767 O.2     1  LIG1       -0.1499
      5 O          -0.8402    4.9052   -0.7501 O.2     1  LIG1       -0.4436
      6 O           5.2410   -1.2297   -4.4339 O.2     1  LIG1       -0.3578
      7 N          -3.0455   -1.0643    0.2063 N.am    1  LIG1       -0.3002
      8 N           3.9425    0.4689   -1.6556 N.pl3   1  LIG1       -0.1965
      9 N          -2.7794    3.9957   -0.0326 N.ar    1  LIG1       -0.2175
     10 N           4.2110   -0.9095   -3.5798 N.ar    1  LIG1       -0.0614
     11 C          -6.5547   -1.5405   -0.5258 C.3     1  LIG1       -0.0295
     12 C          -5.4434   -0.4861   -0.2934 C.3     1  LIG1        0.0290
     13 C          -6.8978   -1.6592   -2.0221 C.3     1  LIG1       -0.0596
     14 C          -6.1511   -2.9216    0.0131 C.3     1  LIG1       -0.0596
     15 C          -7.8247   -1.0780    0.2175 C.3     1  LIG1       -0.0596
     16 C          -4.0466   -0.9054   -0.7476 C.2     1  LIG1        0.2161
     17 C          -1.6645   -1.2238   -0.2734 C.3     1  LIG1        0.0400
     18 C          -0.9943    0.0426   -0.8028 C.ar    1  LIG1       -0.0216
     19 C           0.2005   -0.0138   -1.5758 C.ar    1  LIG1       -0.0113
     20 C           0.8992   -1.2871   -1.8735 C.ar    1  LIG1        0.0090
     21 C          -3.2315   -1.0337    1.6497 C.3     1  LIG1        0.0035
     22 C          -1.5456    1.3070   -0.4991 C.ar    1  LIG1       -0.0442
     23 C           2.1780   -1.6491   -1.3979 C.ar    1  LIG1        0.1162
     24 C           0.7167    1.1917   -2.0906 C.ar    1  LIG1       -0.0529
     25 C          -0.9823    2.5037   -0.9599 C.ar    1  LIG1        0.0372
     26 C           0.1467    2.4308   -1.7761 C.ar    1  LIG1       -0.0489
     27 C           0.2372   -2.2309   -2.6904 C.ar    1  LIG1       -0.0521
     28 C           2.6940   -2.9416   -1.6315 C.ar    1  LIG1       -0.0345
     29 C           0.7630   -3.5025   -2.9366 C.ar    1  LIG1       -0.0611
     30 C          -1.5957    3.7722   -0.5777 C.ar    1  LIG1        0.2271
     31 C           1.9851   -3.8650   -2.3913 C.ar    1  LIG1       -0.0599
     32 C           4.7236   -0.0815   -2.6682 C.ar    1  LIG1        0.1837
     33 C           6.0919    0.1920   -2.9330 C.ar    1  LIG1        0.0342
     34 C           6.3654   -0.5771   -4.0473 C.ar    1  LIG1        0.1390
     35 C           7.0455    1.0390   -2.1848 C.3     1  LIG1       -0.0330
     36 C          -1.6287    5.9066   -0.2701 C.ar    1  LIG1        0.1125
     37 C          -2.8095    5.3533    0.1524 C.ar    1  LIG1        0.0663
     38 C           7.5745   -0.8341   -4.8534 C.3     1  LIG1       -0.0034
     39 H           4.2694    1.3181   -1.2043 H       1  LIG1        0.1753
     40 H          -5.4397   -0.1599    0.7488 H       1  LIG1        0.0364
     41 H          -5.6829    0.4288   -0.8539 H       1  LIG1        0.0364
     42 H          -6.0620   -2.0614   -2.6023 H       1  LIG1        0.0235
     43 H          -7.1644   -0.6841   -2.4455 H       1  LIG1        0.0235
     44 H          -7.7510   -2.3297   -2.1785 H       1  LIG1        0.0235
     45 H          -5.2851   -3.3270   -0.5209 H       1  LIG1        0.0235
     46 H          -6.9690   -3.6425   -0.1029 H       1  LIG1        0.0235
     47 H          -5.9014   -2.8747    1.0782 H       1  LIG1        0.0235
     48 H          -8.1523   -0.0928   -0.1332 H       1  LIG1        0.0235
     49 H          -7.6490   -1.0080    1.2969 H       1  LIG1        0.0235
     50 H          -8.6536   -1.7784    0.0629 H       1  LIG1        0.0235
     51 H          -1.7206   -1.9759   -1.0633 H       1  LIG1        0.0514
     52 H          -1.0486   -1.6380    0.5330 H       1  LIG1        0.0514
     53 H          -4.2625   -1.2379    1.9386 H       1  LIG1        0.0429
     54 H          -2.9298   -0.0537    2.0275 H       1  LIG1        0.0429
     55 H          -2.6098   -1.8085    2.1088 H       1  LIG1        0.0429
     56 H          -2.4420    1.3755    0.1144 H       1  LIG1        0.0628
     57 H           1.5855    1.1749   -2.7459 H       1  LIG1        0.0624
     58 H           0.5969    3.3358   -2.1770 H       1  LIG1        0.0625
     59 H          -0.7273   -1.9791   -3.1342 H       1  LIG1        0.0624
     60 H           3.6736   -3.2275   -1.2512 H       1  LIG1        0.0637
     61 H           0.2102   -4.2061   -3.5532 H       1  LIG1        0.0618
     62 H           2.4010   -4.8515   -2.5782 H       1  LIG1        0.0618
     63 H           6.5481    1.6270   -1.4088 H       1  LIG1        0.0280
     64 H           7.5538    1.7350   -2.8601 H       1  LIG1        0.0280
     65 H           7.8053    0.4158   -1.7014 H       1  LIG1        0.0280
     66 H          -1.2170    6.9038   -0.3011 H       1  LIG1        0.1046
     67 H          -3.6678    5.8510    0.5813 H       1  LIG1        0.0862
     68 H           7.3391   -1.4124   -5.7529 H       1  LIG1        0.0309
     69 H           8.3070   -1.4003   -4.2699 H       1  LIG1        0.0309
     70 H           8.0359    0.1064   -5.1691 H       1  LIG1        0.0309
@<TRIPOS>BOND
     1     1     3    2
     2     1     4    2
     3     1     8    1
     4     1    23    1
     5     2    16    2
     6     5    30   ar
     7     5    36   ar
     8     6    10   ar
     9     6    34   ar
    10     7    16   am
    11     7    17    1
    12     7    21    1
    13     8    32    1
    14     9    30   ar
    15     9    37   ar
    16    10    32   ar
    17    11    12    1
    18    11    13    1
    19    11    14    1
    20    11    15    1
    21    12    16    1
    22    17    18    1
    23    18    19   ar
    24    18    22   ar
    25    19    20    1
    26    19    24   ar
    27    20    23   ar
    28    20    27   ar
    29    22    25   ar
    30    23    28   ar
    31    24    26   ar
    32    25    26   ar
    33    25    30    1
    34    27    29   ar
    35    28    31   ar
    36    29    31   ar
    37    32    33   ar
    38    33    34   ar
    39    33    35    1
    40    34    38    1
    41    36    37   ar
    42     8    39    1
    43    12    40    1
    44    12    41    1
    45    13    42    1
    46    13    43    1
    47    13    44    1
    48    14    45    1
    49    14    46    1
    50    14    47    1
    51    15    48    1
    52    15    49    1
    53    15    50    1
    54    17    51    1
    55    17    52    1
    56    21    53    1
    57    21    54    1
    58    21    55    1
    59    22    56    1
    60    24    57    1
    61    26    58    1
    62    27    59    1
    63    28    60    1
    64    29    61    1
    65    31    62    1
    66    35    63    1
    67    35    64    1
    68    35    65    1
    69    36    66    1
    70    37    67    1
    71    38    68    1
    72    38    69    1
    73    38    70    1
@<TRIPOS>MOLECULE
156690
 70 73 0 0 0
SMALL
GASTEIGER

@<TRIPOS>ATOM
      1 S           3.2283   -0.5330   -0.4883 S.O2    1  LIG1        0.0741
      2 O          -3.8309   -1.0518   -1.9392 O.2     1  LIG1       -0.2756
      3 O           2.4262    0.2954    0.3861 O.2     1  LIG1       -0.1499
      4 O           4.3202   -1.2990    0.0856 O.2     1  LIG1       -0.1499
      5 O          -2.8920    3.7944   -0.2010 O.2     1  LIG1       -0.4436
      6 O           5.2278   -1.2080   -4.4244 O.2     1  LIG1       -0.3578
      7 N          -3.0456   -1.0593    0.2145 N.am    1  LIG1       -0.3002
      8 N           3.9178    0.4867   -1.6493 N.pl3   1  LIG1       -0.1965
      9 N          -1.1020    5.0175   -0.8333 N.ar    1  LIG1       -0.2175
     10 N           4.1948   -0.8893   -3.5738 N.ar    1  LIG1       -0.0614
     11 C          -6.5592   -1.5520   -0.5151 C.3     1  LIG1       -0.0295
     12 C          -5.4498   -0.4983   -0.2725 C.3     1  LIG1        0.0290
     13 C          -6.8976   -1.6635   -2.0130 C.3     1  LIG1       -0.0596
     14 C          -6.1556   -2.9350    0.0186 C.3     1  LIG1       -0.0596
     15 C          -7.8318   -1.0939    0.2264 C.3     1  LIG1       -0.0596
     16 C          -4.0527   -0.9086   -0.7339 C.2     1  LIG1        0.2161
     17 C          -1.6660   -1.2143   -0.2720 C.3     1  LIG1        0.0400
     18 C          -1.0072    0.0516   -0.8170 C.ar    1  LIG1       -0.0216
     19 C           0.1869   -0.0076   -1.5907 C.ar    1  LIG1       -0.0113
     20 C           0.8877   -1.2815   -1.8779 C.ar    1  LIG1        0.0090
     21 C          -3.2259   -1.0511    1.6588 C.3     1  LIG1        0.0035
     22 C          -1.5699    1.3160   -0.5310 C.ar    1  LIG1       -0.0442
     23 C           2.1641   -1.6393   -1.3956 C.ar    1  LIG1        0.1162
     24 C           0.6982    1.1935   -2.1185 C.ar    1  LIG1       -0.0529
     25 C          -1.0211    2.5087   -1.0194 C.ar    1  LIG1        0.0372
     26 C           0.1158    2.4312   -1.8245 C.ar    1  LIG1       -0.0489
     27 C           0.2300   -2.2286   -2.6942 C.ar    1  LIG1       -0.0521
     28 C           2.6849   -2.9314   -1.6259 C.ar    1  LIG1       -0.0345
     29 C           0.7606   -3.4994   -2.9369 C.ar    1  LIG1       -0.0611
     30 C          -1.6127    3.8060   -0.7030 C.ar    1  LIG1        0.2271
     31 C           1.9813   -3.8573   -2.3874 C.ar    1  LIG1       -0.0599
     32 C           4.7029   -0.0608   -2.6606 C.ar    1  LIG1        0.1837
     33 C           6.0714    0.2153   -2.9207 C.ar    1  LIG1        0.0342
     34 C           6.3499   -0.5535   -4.0348 C.ar    1  LIG1        0.1390
     35 C           7.0223    1.0622   -2.1694 C.3     1  LIG1       -0.0330
     36 C          -3.1888    5.1082   -0.0078 C.ar    1  LIG1        0.1125
     37 C          -2.0963    5.8474   -0.3804 C.ar    1  LIG1        0.0663
     38 C           7.5624   -0.8096   -4.8366 C.3     1  LIG1       -0.0034
     39 H           4.2349    1.3416   -1.2019 H       1  LIG1        0.1753
     40 H          -5.4459   -0.1833    0.7731 H       1  LIG1        0.0364
     41 H          -5.6920    0.4220   -0.8229 H       1  LIG1        0.0364
     42 H          -6.0613   -2.0660   -2.5922 H       1  LIG1        0.0235
     43 H          -7.1600   -0.6860   -2.4333 H       1  LIG1        0.0235
     44 H          -7.7522   -2.3310   -2.1750 H       1  LIG1        0.0235
     45 H          -5.2872   -3.3365   -0.5145 H       1  LIG1        0.0235
     46 H          -6.9721   -3.6564   -0.1034 H       1  LIG1        0.0235
     47 H          -5.9091   -2.8926    1.0846 H       1  LIG1        0.0235
     48 H          -8.1589   -0.1073   -0.1211 H       1  LIG1        0.0235
     49 H          -7.6593   -1.0283    1.3066 H       1  LIG1        0.0235
     50 H          -8.6597   -1.7942    0.0663 H       1  LIG1        0.0235
     51 H          -1.7216   -1.9747   -1.0541 H       1  LIG1        0.0514
     52 H          -1.0423   -1.6151    0.5352 H       1  LIG1        0.0514
     53 H          -4.2560   -1.2563    1.9499 H       1  LIG1        0.0429
     54 H          -2.9184   -0.0778    2.0491 H       1  LIG1        0.0429
     55 H          -2.6047   -1.8351    2.1030 H       1  LIG1        0.0429
     56 H          -2.4621    1.3775    0.0872 H       1  LIG1        0.0628
     57 H           1.5702    1.1758   -2.7692 H       1  LIG1        0.0624
     58 H           0.5572    3.3389   -2.2316 H       1  LIG1        0.0625
     59 H          -0.7335   -1.9800   -3.1422 H       1  LIG1        0.0624
     60 H           3.6635   -3.2145   -1.2419 H       1  LIG1        0.0637
     61 H           0.2126   -4.2063   -3.5545 H       1  LIG1        0.0618
     62 H           2.4021   -4.8428   -2.5715 H       1  LIG1        0.0618
     63 H           6.5217    1.6476   -1.3937 H       1  LIG1        0.0280
     64 H           7.5311    1.7601   -2.8424 H       1  LIG1        0.0280
     65 H           7.7821    0.4389   -1.6857 H       1  LIG1        0.0280
     66 H          -4.1702    5.3306    0.3832 H       1  LIG1        0.1046
     67 H          -1.9738    6.9208   -0.3510 H       1  LIG1        0.0862
     68 H           7.3302   -1.3879   -5.7372 H       1  LIG1        0.0309
     69 H           8.2923   -1.3766   -4.2507 H       1  LIG1        0.0309
     70 H           8.0247    0.1308   -5.1501 H       1  LIG1        0.0309
@<TRIPOS>BOND
     1     1     3    2
     2     1     4    2
     3     1     8    1
     4     1    23    1
     5     2    16    2
     6     5    30   ar
     7     5    36   ar
     8     6    10   ar
     9     6    34   ar
    10     7    16   am
    11     7    17    1
    12     7    21    1
    13     8    32    1
    14     9    30   ar
    15     9    37   ar
    16    10    32   ar
    17    11    12    1
    18    11    13    1
    19    11    14    1
    20    11    15    1
    21    12    16    1
    22    17    18    1
    23    18    19   ar
    24    18    22   ar
    25    19    20    1
    26    19    24   ar
    27    20    23   ar
    28    20    27   ar
    29    22    25   ar
    30    23    28   ar
    31    24    26   ar
    32    25    26   ar
    33    25    30    1
    34    27    29   ar
    35    28    31   ar
    36    29    31   ar
    37    32    33   ar
    38    33    34   ar
    39    33    35    1
    40    34    38    1
    41    36    37   ar
    42     8    39    1
    43    12    40    1
    44    12    41    1
    45    13    42    1
    46    13    43    1
    47    13    44    1
    48    14    45    1
    49    14    46    1
    50    14    47    1
    51    15    48    1
    52    15    49    1
    53    15    50    1
    54    17    51    1
    55    17    52    1
    56    21    53    1
    57    21    54    1
    58    21    55    1
    59    22    56    1
    60    24    57    1
    61    26    58    1
    62    27    59    1
    63    28    60    1
    64    29    61    1
    65    31    62    1
    66    35    63    1
    67    35    64    1
    68    35    65    1
    69    36    66    1
    70    37    67    1
    71    38    68    1
    72    38    69    1
    73    38    70    1
@<TRIPOS>MOLECULE
156690
 70 73 0 0 0
SMALL
GASTEIGER

@<TRIPOS>ATOM
      1 S           2.2942   -0.3546   -3.7017 S.O2    1  LIG1        0.0741
      2 O          -0.4356   -0.8702    1.9891 O.2     1  LIG1       -0.2756
      3 O           2.7608   -1.0465   -4.8867 O.2     1  LIG1       -0.1499
      4 O           1.1192    0.4853   -3.8051 O.2     1  LIG1       -0.1499
      5 O          -0.7506    4.9024   -0.5789 O.2     1  LIG1       -0.4436
      6 O           6.5197   -1.0914   -2.4746 O.2     1  LIG1       -0.3578
      7 N          -2.3787   -1.2560    0.8164 N.am    1  LIG1       -0.3002
      8 N           3.5473    0.6373   -3.1747 N.pl3   1  LIG1       -0.1965
      9 N          -2.7125    3.9456   -0.0003 N.ar    1  LIG1       -0.2175
     10 N           5.1483   -0.9779   -2.4403 N.ar    1  LIG1       -0.0614
     11 C          -1.4679   -1.3447    4.6045 C.3     1  LIG1       -0.0295
     12 C          -2.3466   -1.4115    3.3199 C.3     1  LIG1        0.0290
     13 C          -0.8443    0.0492    4.8048 C.3     1  LIG1       -0.0596
     14 C          -2.3820   -1.6261    5.8164 C.3     1  LIG1       -0.0596
     15 C          -0.3631   -2.4177    4.5913 C.3     1  LIG1       -0.0596
     16 C          -1.6291   -1.1598    1.9966 C.2     1  LIG1        0.2161
     17 C          -1.6800   -1.1897   -0.4844 C.3     1  LIG1        0.0400
     18 C          -0.7931    0.0326   -0.6502 C.ar    1  LIG1       -0.0216
     19 C           0.6072   -0.0200   -0.8897 C.ar    1  LIG1       -0.0113
     20 C           1.3453   -1.2774   -1.1979 C.ar    1  LIG1        0.0090
     21 C          -3.7152   -1.8322    0.7897 C.3     1  LIG1        0.0035
     22 C          -1.4316    1.2856   -0.4861 C.ar    1  LIG1       -0.0442
     23 C           2.0523   -1.5428   -2.3919 C.ar    1  LIG1        0.1162
     24 C           1.3151    1.1932   -0.7981 C.ar    1  LIG1       -0.0529
     25 C          -0.7215    2.4893   -0.4853 C.ar    1  LIG1        0.0372
     26 C           0.6669    2.4258   -0.6159 C.ar    1  LIG1       -0.0489
     27 C           1.3560   -2.3141   -0.2376 C.ar    1  LIG1       -0.0521
     28 C           2.6156   -2.8179   -2.6322 C.ar    1  LIG1       -0.0345
     29 C           1.9246   -3.5701   -0.4727 C.ar    1  LIG1       -0.0611
     30 C          -1.4463    3.7480   -0.3245 C.ar    1  LIG1        0.2271
     31 C           2.5443   -3.8286   -1.6816 C.ar    1  LIG1       -0.0599
     32 C           4.8490    0.1666   -3.0542 C.ar    1  LIG1        0.1837
     33 C           6.0252    0.8377   -3.4884 C.ar    1  LIG1        0.0342
     34 C           7.0440   -0.0119   -3.1061 C.ar    1  LIG1        0.1390
     35 C           6.1614    2.1058   -4.2359 C.3     1  LIG1       -0.0330
     36 C          -1.6688    5.8911   -0.3972 C.ar    1  LIG1        0.1125
     37 C          -2.8562    5.3072   -0.0373 C.ar    1  LIG1        0.0663
     38 C           8.5117    0.0008   -3.2595 C.3     1  LIG1       -0.0034
     39 H           3.3726    1.6108   -3.3999 H       1  LIG1        0.1753
     40 H          -3.1495   -0.6683    3.4032 H       1  LIG1        0.0364
     41 H          -2.8022   -2.4082    3.2674 H       1  LIG1        0.0364
     42 H          -1.6086    0.8330    4.7634 H       1  LIG1        0.0235
     43 H          -0.0859    0.2826    4.0526 H       1  LIG1        0.0235
     44 H          -0.3486    0.1203    5.7802 H       1  LIG1        0.0235
     45 H          -3.1804   -0.8796    5.8914 H       1  LIG1        0.0235
     46 H          -1.8150   -1.6008    6.7544 H       1  LIG1        0.0235
     47 H          -2.8501   -2.6136    5.7390 H       1  LIG1        0.0235
     48 H           0.3800   -2.2440    3.8078 H       1  LIG1        0.0235
     49 H          -0.7855   -3.4163    4.4335 H       1  LIG1        0.0235
     50 H           0.1799   -2.4339    5.5435 H       1  LIG1        0.0235
     51 H          -2.4365   -1.1404   -1.2806 H       1  LIG1        0.0514
     52 H          -1.1593   -2.1377   -0.6243 H       1  LIG1        0.0514
     53 H          -4.2641   -1.6454    1.7123 H       1  LIG1        0.0429
     54 H          -3.6219   -2.9140    0.6424 H       1  LIG1        0.0429
     55 H          -4.2849   -1.3964   -0.0361 H       1  LIG1        0.0429
     56 H          -2.5117    1.3134   -0.3269 H       1  LIG1        0.0628
     57 H           2.4006    1.1928   -0.8625 H       1  LIG1        0.0624
     58 H           1.2627    3.3329   -0.5724 H       1  LIG1        0.0625
     59 H           0.8968   -2.1583    0.7341 H       1  LIG1        0.0624
     60 H           3.1505   -3.0219   -3.5592 H       1  LIG1        0.0637
     61 H           1.8789   -4.3369    0.2955 H       1  LIG1        0.0618
     62 H           2.9956   -4.7969   -1.8768 H       1  LIG1        0.0618
     63 H           5.2156    2.6515   -4.2925 H       1  LIG1        0.0280
     64 H           6.4958    1.9040   -5.2595 H       1  LIG1        0.0280
     65 H           6.8988    2.7595   -3.7588 H       1  LIG1        0.0280
     66 H          -1.3301    6.9035   -0.5573 H       1  LIG1        0.1046
     67 H          -3.7979    5.7879    0.1892 H       1  LIG1        0.0862
     68 H           8.9878   -0.7374   -2.6058 H       1  LIG1        0.0309
     69 H           8.9206    0.9845   -3.0095 H       1  LIG1        0.0309
     70 H           8.7862   -0.2346   -4.2926 H       1  LIG1        0.0309
@<TRIPOS>BOND
     1     1     3    2
     2     1     4    2
     3     1     8    1
     4     1    23    1
     5     2    16    2
     6     5    30   ar
     7     5    36   ar
     8     6    10   ar
     9     6    34   ar
    10     7    16   am
    11     7    17    1
    12     7    21    1
    13     8    32    1
    14     9    30   ar
    15     9    37   ar
    16    10    32   ar
    17    11    12    1
    18    11    13    1
    19    11    14    1
    20    11    15    1
    21    12    16    1
    22    17    18    1
    23    18    19   ar
    24    18    22   ar
    25    19    20    1
    26    19    24   ar
    27    20    23   ar
    28    20    27   ar
    29    22    25   ar
    30    23    28   ar
    31    24    26   ar
    32    25    26   ar
    33    25    30    1
    34    27    29   ar
    35    28    31   ar
    36    29    31   ar
    37    32    33   ar
    38    33    34   ar
    39    33    35    1
    40    34    38    1
    41    36    37   ar
    42     8    39    1
    43    12    40    1
    44    12    41    1
    45    13    42    1
    46    13    43    1
    47    13    44    1
    48    14    45    1
    49    14    46    1
    50    14    47    1
    51    15    48    1
    52    15    49    1
    53    15    50    1
    54    17    51    1
    55    17    52    1
    56    21    53    1
    57    21    54    1
    58    21    55    1
    59    22    56    1
    60    24    57    1
    61    26    58    1
    62    27    59    1
    63    28    60    1
    64    29    61    1
    65    31    62    1
    66    35    63    1
    67    35    64    1
    68    35    65    1
    69    36    66    1
    70    37    67    1
    71    38    68    1
    72    38    69    1
    73    38    70    1
@<TRIPOS>MOLECULE
156690
 70 73 0 0 0
SMALL
GASTEIGER

@<TRIPOS>ATOM
      1 S           3.2260   -0.5150   -0.4862 S.O2    1  LIG1        0.0741
      2 O          -3.8613   -1.0640   -1.9317 O.2     1  LIG1       -0.2756
      3 O           2.4208    0.3131    0.3853 O.2     1  LIG1       -0.1499
      4 O           4.3218   -1.2735    0.0897 O.2     1  LIG1       -0.1499
      5 O          -2.9086    3.7912   -0.2091 O.2     1  LIG1       -0.4436
      6 O           5.2148   -1.1947   -4.4263 O.2     1  LIG1       -0.3578
      7 N          -3.0557   -1.0585    0.2152 N.am    1  LIG1       -0.3002
      8 N           3.9094    0.5036   -1.6512 N.pl3   1  LIG1       -0.1965
      9 N          -1.1166    5.0163   -0.8321 N.ar    1  LIG1       -0.2175
     10 N           4.1817   -0.8703   -3.5776 N.ar    1  LIG1       -0.0614
     11 C          -6.5769   -1.5316   -0.4499 C.3     1  LIG1       -0.0295
     12 C          -5.4580   -0.4788   -0.2545 C.3     1  LIG1        0.0290
     13 C          -7.8395   -1.0361    0.2843 C.3     1  LIG1       -0.0596
     14 C          -6.9280   -1.6953   -1.9399 C.3     1  LIG1       -0.0596
     15 C          -6.1802   -2.8979    0.1302 C.3     1  LIG1       -0.0596
     16 C          -4.0696   -0.9076   -0.7257 C.2     1  LIG1        0.2161
     17 C          -1.6803   -1.2168   -0.2817 C.3     1  LIG1        0.0400
     18 C          -1.0187    0.0499   -0.8220 C.ar    1  LIG1       -0.0216
     19 C           0.1798   -0.0078   -1.5895 C.ar    1  LIG1       -0.0113
     20 C           0.8872   -1.2797   -1.8704 C.ar    1  LIG1        0.0090
     21 C          -3.2233   -1.0309    1.6608 C.3     1  LIG1        0.0035
     22 C          -1.5850    1.3140   -0.5401 C.ar    1  LIG1       -0.0442
     23 C           2.1665   -1.6300   -1.3875 C.ar    1  LIG1        0.1162
     24 C           0.6896    1.1945   -2.1162 C.ar    1  LIG1       -0.0529
     25 C          -1.0351    2.5082   -1.0246 C.ar    1  LIG1        0.0372
     26 C           0.1046    2.4319   -1.8254 C.ar    1  LIG1       -0.0489
     27 C           0.2368   -2.2347   -2.6817 C.ar    1  LIG1       -0.0521
     28 C           2.6930   -2.9194   -1.6119 C.ar    1  LIG1       -0.0345
     29 C           0.7723   -3.5039   -2.9186 C.ar    1  LIG1       -0.0611
     30 C          -1.6281    3.8044   -0.7076 C.ar    1  LIG1        0.2271
     31 C           1.9953   -3.8543   -2.3680 C.ar    1  LIG1       -0.0599
     32 C           4.6937   -0.0468   -2.6615 C.ar    1  LIG1        0.1837
     33 C           6.0650    0.2197   -2.9180 C.ar    1  LIG1        0.0342
     34 C           6.3409   -0.5493   -4.0321 C.ar    1  LIG1        0.1390
     35 C           7.0193    1.0595   -2.1632 C.3     1  LIG1       -0.0330
     36 C          -3.2055    5.1045   -0.0111 C.ar    1  LIG1        0.1125
     37 C          -2.1118    5.8449   -0.3779 C.ar    1  LIG1        0.0663
     38 C           7.5533   -0.8132   -4.8306 C.3     1  LIG1       -0.0034
     39 H           4.2320    1.3562   -1.2031 H       1  LIG1        0.1753
     40 H          -5.4342   -0.1339    0.7817 H       1  LIG1        0.0364
     41 H          -5.7042    0.4272   -0.8266 H       1  LIG1        0.0364
     42 H          -8.1626   -0.0611   -0.0979 H       1  LIG1        0.0235
     43 H          -7.6569   -0.9301    1.3597 H       1  LIG1        0.0235
     44 H          -8.6738   -1.7358    0.1586 H       1  LIG1        0.0235
     45 H          -7.1852   -0.7316   -2.3941 H       1  LIG1        0.0235
     46 H          -7.7893   -2.3607   -2.0708 H       1  LIG1        0.0235
     47 H          -6.0993   -2.1262   -2.5099 H       1  LIG1        0.0235
     48 H          -5.9321   -2.8208    1.1937 H       1  LIG1        0.0235
     49 H          -5.3152   -3.3223   -0.3902 H       1  LIG1        0.0235
     50 H          -7.0012   -3.6180    0.0347 H       1  LIG1        0.0235
     51 H          -1.7441   -1.9693   -1.0709 H       1  LIG1        0.0514
     52 H          -1.0539   -1.6282    0.5182 H       1  LIG1        0.0514
     53 H          -4.2518   -1.2284    1.9623 H       1  LIG1        0.0429
     54 H          -2.9104   -0.0539    2.0366 H       1  LIG1        0.0429
     55 H          -2.6007   -1.8111    2.1099 H       1  LIG1        0.0429
     56 H          -2.4809    1.3754    0.0728 H       1  LIG1        0.0628
     57 H           1.5634    1.1784   -2.7648 H       1  LIG1        0.0624
     58 H           0.5467    3.3403   -2.2306 H       1  LIG1        0.0625
     59 H          -0.7271   -1.9914   -3.1357 H       1  LIG1        0.0624
     60 H           3.6745   -3.1947   -1.2263 H       1  LIG1        0.0637
     61 H           0.2271   -4.2144   -3.5342 H       1  LIG1        0.0618
     62 H           2.4187   -4.8381   -2.5496 H       1  LIG1        0.0618
     63 H           6.5216    1.6438   -1.3850 H       1  LIG1        0.0280
     64 H           7.5311    1.7579   -2.8333 H       1  LIG1        0.0280
     65 H           7.7766    0.4308   -1.6821 H       1  LIG1        0.0280
     66 H          -4.1874    5.3255    0.3789 H       1  LIG1        0.1046
     67 H          -1.9889    6.9178   -0.3436 H       1  LIG1        0.0862
     68 H           7.3211   -1.3933   -5.7297 H       1  LIG1        0.0309
     69 H           8.2801   -1.3815   -4.2416 H       1  LIG1        0.0309
     70 H           8.0206    0.1244   -5.1459 H       1  LIG1        0.0309
@<TRIPOS>BOND
     1     1     3    2
     2     1     4    2
     3     1     8    1
     4     1    23    1
     5     2    16    2
     6     5    30   ar
     7     5    36   ar
     8     6    10   ar
     9     6    34   ar
    10     7    16   am
    11     7    17    1
    12     7    21    1
    13     8    32    1
    14     9    30   ar
    15     9    37   ar
    16    10    32   ar
    17    11    12    1
    18    11    13    1
    19    11    14    1
    20    11    15    1
    21    12    16    1
    22    17    18    1
    23    18    19   ar
    24    18    22   ar
    25    19    20    1
    26    19    24   ar
    27    20    23   ar
    28    20    27   ar
    29    22    25   ar
    30    23    28   ar
    31    24    26   ar
    32    25    26   ar
    33    25    30    1
    34    27    29   ar
    35    28    31   ar
    36    29    31   ar
    37    32    33   ar
    38    33    34   ar
    39    33    35    1
    40    34    38    1
    41    36    37   ar
    42     8    39    1
    43    12    40    1
    44    12    41    1
    45    13    42    1
    46    13    43    1
    47    13    44    1
    48    14    45    1
    49    14    46    1
    50    14    47    1
    51    15    48    1
    52    15    49    1
    53    15    50    1
    54    17    51    1
    55    17    52    1
    56    21    53    1
    57    21    54    1
    58    21    55    1
    59    22    56    1
    60    24    57    1
    61    26    58    1
    62    27    59    1
    63    28    60    1
    64    29    61    1
    65    31    62    1
    66    35    63    1
    67    35    64    1
    68    35    65    1
    69    36    66    1
    70    37    67    1
    71    38    68    1
    72    38    69    1
    73    38    70    1
@<TRIPOS>MOLECULE
156690
 70 73 0 0 0
SMALL
GASTEIGER

@<TRIPOS>ATOM
      1 S           3.5869   -0.0056   -0.8475 S.O2    1  LIG1        0.0741
      2 O          -2.1514   -0.9812   -3.3072 O.2     1  LIG1       -0.2756
      3 O           2.8067    0.9892   -0.1468 O.2     1  LIG1       -0.1499
      4 O           4.7419   -0.5999   -0.2055 O.2     1  LIG1       -0.1499
      5 O          -3.0138    3.6619   -0.1688 O.2     1  LIG1       -0.4436
      6 O           4.2925    3.8618   -3.4587 O.2     1  LIG1       -0.3578
      7 N          -3.0576   -1.2950   -1.2190 N.am    1  LIG1       -0.3002
      8 N           4.0885    0.5658   -2.3595 N.pl3   1  LIG1       -0.1965
      9 N          -1.2890    4.9808   -0.7880 N.ar    1  LIG1       -0.2175
     10 N           3.7890    2.5798   -3.5146 N.ar    1  LIG1       -0.0614
     11 C          -4.6361   -0.5898   -4.6932 C.3     1  LIG1       -0.0295
     12 C          -4.5372   -1.1323   -3.2362 C.3     1  LIG1        0.0290
     13 C          -6.1094   -0.7032   -5.1392 C.3     1  LIG1       -0.0596
     14 C          -4.2306    0.8943   -4.7520 C.3     1  LIG1       -0.0596
     15 C          -3.7892   -1.4006   -5.6926 C.3     1  LIG1       -0.0596
     16 C          -3.1475   -1.1248   -2.6021 C.2     1  LIG1        0.2161
     17 C          -1.7359   -1.2227   -0.5503 C.3     1  LIG1        0.0400
     18 C          -0.9456    0.0238   -0.9134 C.ar    1  LIG1       -0.0216
     19 C           0.3054    0.0256   -1.5933 C.ar    1  LIG1       -0.0113
     20 C           1.1624   -1.1883   -1.7977 C.ar    1  LIG1        0.0090
     21 C          -4.1707   -1.7096   -0.3791 C.3     1  LIG1        0.0035
     22 C          -1.5943    1.2518   -0.6105 C.ar    1  LIG1       -0.0442
     23 C           2.5163   -1.3436   -1.3989 C.ar    1  LIG1        0.1162
     24 C           0.7140    1.2683   -2.1098 C.ar    1  LIG1       -0.0529
     25 C          -1.0894    2.4842   -1.0260 C.ar    1  LIG1        0.0372
     26 C           0.0589    2.4732   -1.8103 C.ar    1  LIG1       -0.0489
     27 C           0.6043   -2.3122   -2.4483 C.ar    1  LIG1       -0.0521
     28 C           3.1832   -2.5866   -1.5334 C.ar    1  LIG1       -0.0345
     29 C           1.2679   -3.5366   -2.5900 C.ar    1  LIG1       -0.0611
     30 C          -1.7411    3.7440   -0.6821 C.ar    1  LIG1        0.2271
     31 C           2.5542   -3.6824   -2.1086 C.ar    1  LIG1       -0.0599
     32 C           4.4067    1.9038   -2.5429 C.ar    1  LIG1        0.1837
     33 C           5.4083    2.6826   -1.9178 C.ar    1  LIG1        0.0342
     34 C           5.2599    3.9223   -2.5080 C.ar    1  LIG1        0.1390
     35 C           6.4200    2.2841   -0.9166 C.3     1  LIG1       -0.0330
     36 C          -3.3668    4.9565    0.0605 C.ar    1  LIG1        0.1125
     37 C          -2.3136    5.7537   -0.3051 C.ar    1  LIG1        0.0663
     38 C           5.9322    5.2258   -2.3574 C.3     1  LIG1       -0.0034
     39 H           3.4975    0.2180   -3.1129 H       1  LIG1        0.1753
     40 H          -4.8926   -2.1703   -3.2168 H       1  LIG1        0.0364
     41 H          -5.2010   -0.5285   -2.6054 H       1  LIG1        0.0364
     42 H          -6.7723   -0.1435   -4.4703 H       1  LIG1        0.0235
     43 H          -6.4399   -1.7482   -5.1439 H       1  LIG1        0.0235
     44 H          -6.2495   -0.3071   -6.1519 H       1  LIG1        0.0235
     45 H          -4.8378    1.4959   -4.0663 H       1  LIG1        0.0235
     46 H          -4.3689    1.3007   -5.7605 H       1  LIG1        0.0235
     47 H          -3.1800    1.0446   -4.4841 H       1  LIG1        0.0235
     48 H          -3.9741   -2.4749   -5.5877 H       1  LIG1        0.0235
     49 H          -2.7160   -1.2288   -5.5729 H       1  LIG1        0.0235
     50 H          -4.0290   -1.1218   -6.7259 H       1  LIG1        0.0235
     51 H          -1.2170   -2.1611   -0.7425 H       1  LIG1        0.0514
     52 H          -1.9026   -1.1938    0.5353 H       1  LIG1        0.0514
     53 H          -5.0734   -1.9392   -0.9459 H       1  LIG1        0.0429
     54 H          -4.3887   -0.9046    0.3288 H       1  LIG1        0.0429
     55 H          -3.8807   -2.6098    0.1713 H       1  LIG1        0.0429
     56 H          -2.5310    1.2247   -0.0544 H       1  LIG1        0.0628
     57 H           1.5773    1.3369   -2.7582 H       1  LIG1        0.0624
     58 H           0.4697    3.4060   -2.1938 H       1  LIG1        0.0625
     59 H          -0.3954   -2.2586   -2.8677 H       1  LIG1        0.0624
     60 H           4.2181   -2.7024   -1.2127 H       1  LIG1        0.0637
     61 H           0.7655   -4.3683   -3.0781 H       1  LIG1        0.0618
     62 H           3.0781   -4.6291   -2.2097 H       1  LIG1        0.0618
     63 H           6.5426    1.1989   -0.8750 H       1  LIG1        0.0280
     64 H           6.1455    2.6463    0.0778 H       1  LIG1        0.0280
     65 H           7.3983    2.7035   -1.1788 H       1  LIG1        0.0280
     66 H          -4.3518    5.1253    0.4685 H       1  LIG1        0.1046
     67 H          -2.2377    6.8304   -0.2506 H       1  LIG1        0.0862
     68 H           5.2428    6.0486   -2.5730 H       1  LIG1        0.0309
     69 H           6.7779    5.2977   -3.0478 H       1  LIG1        0.0309
     70 H           6.3054    5.3587   -1.3377 H       1  LIG1        0.0309
@<TRIPOS>BOND
     1     1     3    2
     2     1     4    2
     3     1     8    1
     4     1    23    1
     5     2    16    2
     6     5    30   ar
     7     5    36   ar
     8     6    10   ar
     9     6    34   ar
    10     7    16   am
    11     7    17    1
    12     7    21    1
    13     8    32    1
    14     9    30   ar
    15     9    37   ar
    16    10    32   ar
    17    11    12    1
    18    11    13    1
    19    11    14    1
    20    11    15    1
    21    12    16    1
    22    17    18    1
    23    18    19   ar
    24    18    22   ar
    25    19    20    1
    26    19    24   ar
    27    20    23   ar
    28    20    27   ar
    29    22    25   ar
    30    23    28   ar
    31    24    26   ar
    32    25    26   ar
    33    25    30    1
    34    27    29   ar
    35    28    31   ar
    36    29    31   ar
    37    32    33   ar
    38    33    34   ar
    39    33    35    1
    40    34    38    1
    41    36    37   ar
    42     8    39    1
    43    12    40    1
    44    12    41    1
    45    13    42    1
    46    13    43    1
    47    13    44    1
    48    14    45    1
    49    14    46    1
    50    14    47    1
    51    15    48    1
    52    15    49    1
    53    15    50    1
    54    17    51    1
    55    17    52    1
    56    21    53    1
    57    21    54    1
    58    21    55    1
    59    22    56    1
    60    24    57    1
    61    26    58    1
    62    27    59    1
    63    28    60    1
    64    29    61    1
    65    31    62    1
    66    35    63    1
    67    35    64    1
    68    35    65    1
    69    36    66    1
    70    37    67    1
    71    38    68    1
    72    38    69    1
    73    38    70    1
@<TRIPOS>MOLECULE
156690
 70 73 0 0 0
SMALL
GASTEIGER

@<TRIPOS>ATOM
      1 S           2.8718   -0.0681   -3.3517 S.O2    1  LIG1        0.0741
      2 O          -5.2109   -1.1892   -2.2356 O.2     1  LIG1       -0.2756
      3 O           3.3520   -0.7235   -4.5566 O.2     1  LIG1       -0.1499
      4 O           2.0265    1.0901   -3.5014 O.2     1  LIG1       -0.1499
      5 O          -2.9788    3.7980    0.4645 O.2     1  LIG1       -0.4436
      6 O           4.0351    2.5384    0.2243 O.2     1  LIG1       -0.3578
      7 N          -3.4135   -1.1119   -0.8189 N.am    1  LIG1       -0.3002
      8 N           4.3021    0.3513   -2.4946 N.pl3   1  LIG1       -0.1965
      9 N          -1.5203    5.0267   -0.7465 N.ar    1  LIG1       -0.2175
     10 N           4.2925    2.2715   -1.1090 N.ar    1  LIG1       -0.0614
     11 C          -3.6505   -1.8723   -4.6202 C.3     1  LIG1       -0.0295
     12 C          -3.0461   -1.6678   -3.2117 C.3     1  LIG1        0.0290
     13 C          -2.5012   -2.3043   -5.5575 C.3     1  LIG1       -0.0596
     14 C          -4.7085   -2.9889   -4.6298 C.3     1  LIG1       -0.0596
     15 C          -4.2476   -0.5648   -5.1609 C.3     1  LIG1       -0.0596
     16 C          -3.9965   -1.2924   -2.0726 C.2     1  LIG1        0.2161
     17 C          -1.9742   -1.2099   -0.5666 C.3     1  LIG1        0.0400
     18 C          -1.1688    0.0733   -0.7627 C.ar    1  LIG1       -0.0216
     19 C           0.2330    0.0764   -1.0643 C.ar    1  LIG1       -0.0113
     20 C           1.0752   -1.1532   -1.3529 C.ar    1  LIG1        0.0090
     21 C          -4.2830   -0.9668    0.3436 C.3     1  LIG1        0.0035
     22 C          -1.8476    1.3098   -0.5290 C.ar    1  LIG1       -0.0442
     23 C           2.0955   -1.3316   -2.3354 C.ar    1  LIG1        0.1162
     24 C           0.8293    1.3447   -1.0435 C.ar    1  LIG1       -0.0529
     25 C          -1.2031    2.5486   -0.5818 C.ar    1  LIG1        0.0372
     26 C           0.1490    2.5476   -0.8454 C.ar    1  LIG1       -0.0489
     27 C           0.8513   -2.2966   -0.5397 C.ar    1  LIG1       -0.0521
     28 C           2.6497   -2.6178   -2.5867 C.ar    1  LIG1       -0.0345
     29 C           1.4144   -3.5582   -0.7852 C.ar    1  LIG1       -0.0611
     30 C          -1.8768    3.8179   -0.3511 C.ar    1  LIG1        0.2271
     31 C           2.2894   -3.7288   -1.8357 C.ar    1  LIG1       -0.0599
     32 C           4.2202    0.9440   -1.2336 C.ar    1  LIG1        0.1837
     33 C           4.1138    0.3124    0.0343 C.ar    1  LIG1        0.0342
     34 C           3.9037    1.3674    0.9007 C.ar    1  LIG1        0.1390
     35 C           4.1792   -1.1177    0.3968 C.3     1  LIG1       -0.0330
     36 C          -3.3291    5.1112    0.5737 C.ar    1  LIG1        0.1125
     37 C          -2.4531    5.8502   -0.1764 C.ar    1  LIG1        0.0663
     38 C           3.5691    1.4629    2.3361 C.3     1  LIG1       -0.0034
     39 H           4.7907    0.9837   -3.1320 H       1  LIG1        0.1753
     40 H          -2.2716   -0.8937   -3.2710 H       1  LIG1        0.0364
     41 H          -2.5642   -2.6109   -2.9239 H       1  LIG1        0.0364
     42 H          -2.0443   -3.2411   -5.2169 H       1  LIG1        0.0235
     43 H          -1.7122   -1.5446   -5.5950 H       1  LIG1        0.0235
     44 H          -2.8602   -2.4636   -6.5803 H       1  LIG1        0.0235
     45 H          -4.3076   -3.9150   -4.2020 H       1  LIG1        0.0235
     46 H          -5.0354   -3.2103   -5.6520 H       1  LIG1        0.0235
     47 H          -5.6039   -2.7204   -4.0628 H       1  LIG1        0.0235
     48 H          -3.5021    0.2386   -5.1571 H       1  LIG1        0.0235
     49 H          -5.1032   -0.2275   -4.5686 H       1  LIG1        0.0235
     50 H          -4.5952   -0.6897   -6.1925 H       1  LIG1        0.0235
     51 H          -1.5854   -2.0026   -1.2041 H       1  LIG1        0.0514
     52 H          -1.8496   -1.5333    0.4746 H       1  LIG1        0.0514
     53 H          -5.3166   -0.7493    0.0624 H       1  LIG1        0.0429
     54 H          -3.9194   -0.1623    0.9883 H       1  LIG1        0.0429
     55 H          -4.2632   -1.9051    0.9063 H       1  LIG1        0.0429
     56 H          -2.9128    1.3147   -0.3143 H       1  LIG1        0.0628
     57 H           1.8789    1.4675   -1.2132 H       1  LIG1        0.0624
     58 H           0.7068    3.4828   -0.9024 H       1  LIG1        0.0625
     59 H           0.2144   -2.2257    0.3388 H       1  LIG1        0.0624
     60 H           3.3943   -2.7627   -3.3683 H       1  LIG1        0.0637
     61 H           1.1584   -4.4028   -0.1495 H       1  LIG1        0.0618
     62 H           2.7240   -4.7004   -2.0522 H       1  LIG1        0.0618
     63 H           4.4089   -1.7457   -0.4662 H       1  LIG1        0.0280
     64 H           3.2379   -1.4501    0.8426 H       1  LIG1        0.0280
     65 H           4.9702   -1.2810    1.1363 H       1  LIG1        0.0280
     66 H          -4.1827    5.3343    1.1957 H       1  LIG1        0.1046
     67 H          -2.4328    6.9213   -0.3291 H       1  LIG1        0.0862
     68 H           3.3091    2.4869    2.6221 H       1  LIG1        0.0309
     69 H           4.4106    1.1347    2.9526 H       1  LIG1        0.0309
     70 H           2.7070    0.8270    2.5675 H       1  LIG1        0.0309
@<TRIPOS>BOND
     1     1     3    2
     2     1     4    2
     3     1     8    1
     4     1    23    1
     5     2    16    2
     6     5    30   ar
     7     5    36   ar
     8     6    10   ar
     9     6    34   ar
    10     7    16   am
    11     7    17    1
    12     7    21    1
    13     8    32    1
    14     9    30   ar
    15     9    37   ar
    16    10    32   ar
    17    11    12    1
    18    11    13    1
    19    11    14    1
    20    11    15    1
    21    12    16    1
    22    17    18    1
    23    18    19   ar
    24    18    22   ar
    25    19    20    1
    26    19    24   ar
    27    20    23   ar
    28    20    27   ar
    29    22    25   ar
    30    23    28   ar
    31    24    26   ar
    32    25    26   ar
    33    25    30    1
    34    27    29   ar
    35    28    31   ar
    36    29    31   ar
    37    32    33   ar
    38    33    34   ar
    39    33    35    1
    40    34    38    1
    41    36    37   ar
    42     8    39    1
    43    12    40    1
    44    12    41    1
    45    13    42    1
    46    13    43    1
    47    13    44    1
    48    14    45    1
    49    14    46    1
    50    14    47    1
    51    15    48    1
    52    15    49    1
    53    15    50    1
    54    17    51    1
    55    17    52    1
    56    21    53    1
    57    21    54    1
    58    21    55    1
    59    22    56    1
    60    24    57    1
    61    26    58    1
    62    27    59    1
    63    28    60    1
    64    29    61    1
    65    31    62    1
    66    35    63    1
    67    35    64    1
    68    35    65    1
    69    36    66    1
    70    37    67    1
    71    38    68    1
    72    38    69    1
    73    38    70    1
@<TRIPOS>MOLECULE
156690
 70 73 0 0 0
SMALL
GASTEIGER

@<TRIPOS>ATOM
      1 S           2.6175   -0.1211   -3.2326 S.O2    1  LIG1        0.0741
      2 O          -4.3661   -0.5554   -2.4148 O.2     1  LIG1       -0.2756
      3 O           3.1581   -0.7425   -4.4238 O.2     1  LIG1       -0.1499
      4 O           1.5957    0.8949   -3.3205 O.2     1  LIG1       -0.1499
      5 O          -2.9391    3.8502   -0.4239 O.2     1  LIG1       -0.4436
      6 O           5.5154    3.4960   -2.8627 O.2     1  LIG1       -0.3578
      7 N          -3.1887   -1.0726   -0.5191 N.am    1  LIG1       -0.3002
      8 N           3.9091    0.4614   -2.2947 N.pl3   1  LIG1       -0.1965
      9 N          -1.0591    4.9942    0.0788 N.ar    1  LIG1       -0.2175
     10 N           4.5489    2.7147   -2.2665 N.ar    1  LIG1       -0.0614
     11 C          -6.7285   -1.5426   -0.5340 C.3     1  LIG1       -0.0295
     12 C          -5.6304   -0.4592   -0.3970 C.3     1  LIG1        0.0290
     13 C          -7.9559   -1.0854    0.2809 C.3     1  LIG1       -0.0596
     14 C          -7.1681   -1.7185   -1.9984 C.3     1  LIG1       -0.0596
     15 C          -6.2557   -2.8964    0.0152 C.3     1  LIG1       -0.0596
     16 C          -4.3505   -0.7148   -1.1885 C.2     1  LIG1        0.2161
     17 C          -1.9179   -1.0614   -1.2770 C.3     1  LIG1        0.0400
     18 C          -1.0148    0.1160   -0.9203 C.ar    1  LIG1       -0.0216
     19 C           0.3933    0.0131   -0.7673 C.ar    1  LIG1       -0.0113
     20 C           1.1499   -1.2309   -1.0565 C.ar    1  LIG1        0.0090
     21 C          -3.0918   -1.2469    0.9250 C.3     1  LIG1        0.0035
     22 C          -1.6308    1.3833   -0.7752 C.ar    1  LIG1       -0.0442
     23 C           2.0492   -1.4297   -2.1358 C.ar    1  LIG1        0.1162
     24 C           1.0768    1.1493   -0.2915 C.ar    1  LIG1       -0.0529
     25 C          -0.9227    2.5247   -0.3874 C.ar    1  LIG1        0.0372
     26 C           0.4387    2.3856   -0.1257 C.ar    1  LIG1       -0.0489
     27 C           0.9567   -2.3268   -0.1865 C.ar    1  LIG1       -0.0521
     28 C           2.6195   -2.6967   -2.3757 C.ar    1  LIG1       -0.0345
     29 C           1.5399   -3.5758   -0.4205 C.ar    1  LIG1       -0.0611
     30 C          -1.5784    3.8210   -0.2358 C.ar    1  LIG1        0.2271
     31 C           2.3540   -3.7666   -1.5278 C.ar    1  LIG1       -0.0599
     32 C           4.6824    1.5010   -2.8032 C.ar    1  LIG1        0.1837
     33 C           5.7824    1.4330   -3.6916 C.ar    1  LIG1        0.0342
     34 C           6.2627    2.7286   -3.6973 C.ar    1  LIG1        0.1390
     35 C           6.3607    0.2652   -4.3906 C.3     1  LIG1       -0.0330
     36 C          -3.2779    5.1536   -0.2304 C.ar    1  LIG1        0.1125
     37 C          -2.1342    5.8468    0.0694 C.ar    1  LIG1        0.0663
     38 C           7.4026    3.4037   -4.3464 C.3     1  LIG1       -0.0034
     39 H           3.5020    0.8125   -1.4339 H       1  LIG1        0.1753
     40 H          -5.4122   -0.2616    0.6561 H       1  LIG1        0.0364
     41 H          -6.0206    0.4982   -0.7729 H       1  LIG1        0.0364
     42 H          -8.3428   -0.1291   -0.0894 H       1  LIG1        0.0235
     43 H          -7.7038   -0.9563    1.3395 H       1  LIG1        0.0235
     44 H          -8.7693   -1.8176    0.2206 H       1  LIG1        0.0235
     45 H          -7.4525   -0.7590   -2.4446 H       1  LIG1        0.0235
     46 H          -8.0339   -2.3869   -2.0725 H       1  LIG1        0.0235
     47 H          -6.3736   -2.1564   -2.6110 H       1  LIG1        0.0235
     48 H          -5.9946   -2.8246    1.0762 H       1  LIG1        0.0235
     49 H          -5.3801   -3.2680   -0.5269 H       1  LIG1        0.0235
     50 H          -7.0432   -3.6537   -0.0753 H       1  LIG1        0.0235
     51 H          -2.1000   -1.0374   -2.3561 H       1  LIG1        0.0514
     52 H          -1.4483   -2.0229   -1.0611 H       1  LIG1        0.0514
     53 H          -4.0163   -1.6462    1.3430 H       1  LIG1        0.0429
     54 H          -2.8843   -0.2787    1.3898 H       1  LIG1        0.0429
     55 H          -2.2880   -1.9498    1.1607 H       1  LIG1        0.0429
     56 H          -2.6978    1.4750   -0.9740 H       1  LIG1        0.0628
     57 H           2.1301    1.0981   -0.0390 H       1  LIG1        0.0624
     58 H           1.0212    3.2489    0.1939 H       1  LIG1        0.0625
     59 H           0.3166   -2.2155    0.6884 H       1  LIG1        0.0624
     60 H           3.2890   -2.8555   -3.2205 H       1  LIG1        0.0637
     61 H           1.3463   -4.4018    0.2596 H       1  LIG1        0.0618
     62 H           2.7975   -4.7400   -1.7235 H       1  LIG1        0.0618
     63 H           5.8400   -0.6631   -4.1421 H       1  LIG1        0.0280
     64 H           7.4112    0.1374   -4.1054 H       1  LIG1        0.0280
     65 H           6.3181    0.4054   -5.4751 H       1  LIG1        0.0280
     66 H          -4.3223    5.4037   -0.3419 H       1  LIG1        0.1046
     67 H          -2.0269    6.9018    0.2779 H       1  LIG1        0.0862
     68 H           7.3179    4.4923   -4.2653 H       1  LIG1        0.0309
     69 H           7.4548    3.1463   -5.4080 H       1  LIG1        0.0309
     70 H           8.3410    3.1023   -3.8702 H       1  LIG1        0.0309
@<TRIPOS>BOND
     1     1     3    2
     2     1     4    2
     3     1     8    1
     4     1    23    1
     5     2    16    2
     6     5    30   ar
     7     5    36   ar
     8     6    10   ar
     9     6    34   ar
    10     7    16   am
    11     7    17    1
    12     7    21    1
    13     8    32    1
    14     9    30   ar
    15     9    37   ar
    16    10    32   ar
    17    11    12    1
    18    11    13    1
    19    11    14    1
    20    11    15    1
    21    12    16    1
    22    17    18    1
    23    18    19   ar
    24    18    22   ar
    25    19    20    1
    26    19    24   ar
    27    20    23   ar
    28    20    27   ar
    29    22    25   ar
    30    23    28   ar
    31    24    26   ar
    32    25    26   ar
    33    25    30    1
    34    27    29   ar
    35    28    31   ar
    36    29    31   ar
    37    32    33   ar
    38    33    34   ar
    39    33    35    1
    40    34    38    1
    41    36    37   ar
    42     8    39    1
    43    12    40    1
    44    12    41    1
    45    13    42    1
    46    13    43    1
    47    13    44    1
    48    14    45    1
    49    14    46    1
    50    14    47    1
    51    15    48    1
    52    15    49    1
    53    15    50    1
    54    17    51    1
    55    17    52    1
    56    21    53    1
    57    21    54    1
    58    21    55    1
    59    22    56    1
    60    24    57    1
    61    26    58    1
    62    27    59    1
    63    28    60    1
    64    29    61    1
    65    31    62    1
    66    35    63    1
    67    35    64    1
    68    35    65    1
    69    36    66    1
    70    37    67    1
    71    38    68    1
    72    38    69    1
    73    38    70    1
@<TRIPOS>MOLECULE
156690
 70 73 0 0 0
SMALL
GASTEIGER

@<TRIPOS>ATOM
      1 S           2.6815   -0.1123   -3.2841 S.O2    1  LIG1        0.0741
      2 O          -4.0018   -1.5418    0.9476 O.2     1  LIG1       -0.2756
      3 O           2.9462   -0.7789   -4.5467 O.2     1  LIG1       -0.1499
      4 O           1.8975    1.0978   -3.2854 O.2     1  LIG1       -0.1499
      5 O          -3.2463    3.6550    0.4269 O.2     1  LIG1       -0.4436
      6 O           4.3446    2.5255    0.0032 O.2     1  LIG1       -0.3578
      7 N          -3.4562   -1.0450   -1.2245 N.am    1  LIG1       -0.3002
      8 N           4.2318    0.2059   -2.6146 N.pl3   1  LIG1       -0.1965
      9 N          -1.5460    4.9993   -0.2058 N.ar    1  LIG1       -0.2175
     10 N           4.4363    2.1920   -1.3352 N.ar    1  LIG1       -0.0614
     11 C          -6.8866   -1.2408    0.6025 C.3     1  LIG1       -0.0295
     12 C          -5.8441   -1.0343   -0.5281 C.3     1  LIG1        0.0290
     13 C          -8.2823   -0.9630    0.0014 C.3     1  LIG1       -0.0596
     14 C          -6.8762   -2.6873    1.1252 C.3     1  LIG1       -0.0596
     15 C          -6.6714   -0.2595    1.7672 C.3     1  LIG1       -0.0596
     16 C          -4.3687   -1.2364   -0.1867 C.2     1  LIG1        0.2161
     17 C          -2.0273   -1.2114   -0.9347 C.3     1  LIG1        0.0400
     18 C          -1.2249    0.0811   -0.7984 C.ar    1  LIG1       -0.0216
     19 C           0.1973    0.0990   -0.9300 C.ar    1  LIG1       -0.0113
     20 C           1.0185   -1.1319   -1.1809 C.ar    1  LIG1        0.0090
     21 C          -3.7926   -0.7145   -2.6036 C.3     1  LIG1        0.0035
     22 C          -1.9150    1.2797   -0.4657 C.ar    1  LIG1       -0.0442
     23 C           2.0014   -1.3455   -2.1811 C.ar    1  LIG1        0.1162
     24 C           0.8195    1.3397   -0.7233 C.ar    1  LIG1       -0.0529
     25 C          -1.2618    2.5087   -0.3326 C.ar    1  LIG1        0.0372
     26 C           0.1183    2.5227   -0.4731 C.ar    1  LIG1       -0.0489
     27 C           0.7984   -2.2285   -0.3083 C.ar    1  LIG1       -0.0521
     28 C           2.5701   -2.6308   -2.3723 C.ar    1  LIG1       -0.0345
     29 C           1.3784   -3.4888   -0.4931 C.ar    1  LIG1       -0.0611
     30 C          -1.9690    3.7557   -0.0641 C.ar    1  LIG1        0.2271
     31 C           2.2464   -3.6995   -1.5477 C.ar    1  LIG1       -0.0599
     32 C           4.3067    0.8657   -1.3880 C.ar    1  LIG1        0.1837
     33 C           4.3215    0.2921   -0.0887 C.ar    1  LIG1        0.0342
     34 C           4.2437    1.3907    0.7435 C.ar    1  LIG1        0.1390
     35 C           4.3644   -1.1246    0.3282 C.3     1  LIG1       -0.0330
     36 C          -3.6374    4.9481    0.6017 C.ar    1  LIG1        0.1125
     37 C          -2.6092    5.7617    0.2020 C.ar    1  LIG1        0.0663
     38 C           4.0521    1.5602    2.1977 C.3     1  LIG1       -0.0034
     39 H           4.7085    0.7497   -3.3368 H       1  LIG1        0.1753
     40 H          -5.9463   -0.0086   -0.9063 H       1  LIG1        0.0364
     41 H          -6.0834   -1.7272   -1.3448 H       1  LIG1        0.0364
     42 H          -8.4960   -1.6399   -0.8336 H       1  LIG1        0.0235
     43 H          -8.3537    0.0641   -0.3745 H       1  LIG1        0.0235
     44 H          -9.0726   -1.0982    0.7486 H       1  LIG1        0.0235
     45 H          -7.0006   -3.4038    0.3057 H       1  LIG1        0.0235
     46 H          -7.6943   -2.8531    1.8360 H       1  LIG1        0.0235
     47 H          -5.9460   -2.9325    1.6456 H       1  LIG1        0.0235
     48 H          -6.6310    0.7753    1.4094 H       1  LIG1        0.0235
     49 H          -5.7465   -0.4612    2.3145 H       1  LIG1        0.0235
     50 H          -7.4912   -0.3268    2.4922 H       1  LIG1        0.0235
     51 H          -1.6182   -1.8277   -1.7433 H       1  LIG1        0.0514
     52 H          -1.9211   -1.7714   -0.0007 H       1  LIG1        0.0514
     53 H          -4.8606   -0.5693   -2.7604 H       1  LIG1        0.0429
     54 H          -3.4560   -1.5342   -3.2457 H       1  LIG1        0.0429
     55 H          -3.2737    0.2038   -2.8915 H       1  LIG1        0.0429
     56 H          -2.9935    1.2549   -0.3212 H       1  LIG1        0.0628
     57 H           1.8903    1.4377   -0.7845 H       1  LIG1        0.0624
     58 H           0.6731    3.4565   -0.3858 H       1  LIG1        0.0625
     59 H           0.1461   -2.1100    0.5571 H       1  LIG1        0.0624
     60 H           3.2967   -2.8038   -3.1677 H       1  LIG1        0.0637
     61 H           1.1408   -4.3010    0.1891 H       1  LIG1        0.0618
     62 H           2.6945   -4.6758   -1.7125 H       1  LIG1        0.0618
     63 H           4.6069   -1.7849   -0.5077 H       1  LIG1        0.0280
     64 H           3.4101   -1.4306    0.7639 H       1  LIG1        0.0280
     65 H           5.1374   -1.2719    1.0902 H       1  LIG1        0.0280
     66 H          -4.6290    5.1047    0.9983 H       1  LIG1        0.1046
     67 H          -2.5722    6.8417    0.1897 H       1  LIG1        0.0862
     68 H           3.8312    2.6006    2.4539 H       1  LIG1        0.0309
     69 H           4.9454    1.2487    2.7453 H       1  LIG1        0.0309
     70 H           3.2084    0.9501    2.5401 H       1  LIG1        0.0309
@<TRIPOS>BOND
     1     1     3    2
     2     1     4    2
     3     1     8    1
     4     1    23    1
     5     2    16    2
     6     5    30   ar
     7     5    36   ar
     8     6    10   ar
     9     6    34   ar
    10     7    16   am
    11     7    17    1
    12     7    21    1
    13     8    32    1
    14     9    30   ar
    15     9    37   ar
    16    10    32   ar
    17    11    12    1
    18    11    13    1
    19    11    14    1
    20    11    15    1
    21    12    16    1
    22    17    18    1
    23    18    19   ar
    24    18    22   ar
    25    19    20    1
    26    19    24   ar
    27    20    23   ar
    28    20    27   ar
    29    22    25   ar
    30    23    28   ar
    31    24    26   ar
    32    25    26   ar
    33    25    30    1
    34    27    29   ar
    35    28    31   ar
    36    29    31   ar
    37    32    33   ar
    38    33    34   ar
    39    33    35    1
    40    34    38    1
    41    36    37   ar
    42     8    39    1
    43    12    40    1
    44    12    41    1
    45    13    42    1
    46    13    43    1
    47    13    44    1
    48    14    45    1
    49    14    46    1
    50    14    47    1
    51    15    48    1
    52    15    49    1
    53    15    50    1
    54    17    51    1
    55    17    52    1
    56    21    53    1
    57    21    54    1
    58    21    55    1
    59    22    56    1
    60    24    57    1
    61    26    58    1
    62    27    59    1
    63    28    60    1
    64    29    61    1
    65    31    62    1
    66    35    63    1
    67    35    64    1
    68    35    65    1
    69    36    66    1
    70    37    67    1
    71    38    68    1
    72    38    69    1
    73    38    70    1
@<TRIPOS>MOLECULE
156690
 70 73 0 0 0
SMALL
GASTEIGER

@<TRIPOS>ATOM
      1 S           3.3075   -0.1982   -0.5533 S.O2    1  LIG1        0.0741
      2 O          -4.2338   -0.6662   -0.5941 O.2     1  LIG1       -0.2756
      3 O           3.6118    0.9303   -1.4044 O.2     1  LIG1       -0.1499
      4 O           2.6253   -0.0384    0.7162 O.2     1  LIG1       -0.1499
      5 O          -2.6729    3.7640    0.4177 O.2     1  LIG1       -0.4436
      6 O           7.5212    0.0861   -2.0146 O.2     1  LIG1       -0.3578
      7 N          -2.5378   -1.1551    0.8664 N.am    1  LIG1       -0.3002
      8 N           4.7618   -0.9733   -0.1189 N.pl3   1  LIG1       -0.1965
      9 N          -1.2950    5.0260   -0.8492 N.ar    1  LIG1       -0.2175
     10 N           6.3382   -0.6170   -1.8785 N.ar    1  LIG1       -0.0614
     11 C          -6.0363    0.3441    1.5200 C.3     1  LIG1       -0.0295
     12 C          -4.8056   -0.5764    1.7493 C.3     1  LIG1        0.0290
     13 C          -6.9810   -0.1701    0.4218 C.3     1  LIG1       -0.0596
     14 C          -6.8372    0.3901    2.8407 C.3     1  LIG1       -0.0596
     15 C          -5.5803    1.7747    1.1845 C.3     1  LIG1       -0.0596
     16 C          -3.8536   -0.7917    0.5680 C.2     1  LIG1        0.2161
     17 C          -1.5676   -1.2373   -0.2340 C.3     1  LIG1        0.0400
     18 C          -0.8894    0.0650   -0.6524 C.ar    1  LIG1       -0.0216
     19 C           0.2691    0.0613   -1.4789 C.ar    1  LIG1       -0.0113
     20 C           1.0247   -1.1679   -1.8365 C.ar    1  LIG1        0.0090
     21 C          -2.0115   -1.3653    2.2072 C.3     1  LIG1        0.0035
     22 C          -1.4835    1.3072   -0.3246 C.ar    1  LIG1       -0.0442
     23 C           2.3845   -1.3996   -1.4992 C.ar    1  LIG1        0.1162
     24 C           0.7050    1.2921   -2.0085 C.ar    1  LIG1       -0.0529
     25 C          -0.9924    2.5299   -0.8032 C.ar    1  LIG1        0.0372
     26 C           0.1016    2.5036   -1.6644 C.ar    1  LIG1       -0.0489
     27 C           0.3721   -2.1676   -2.5882 C.ar    1  LIG1       -0.0521
     28 C           3.0274   -2.5924   -1.8755 C.ar    1  LIG1       -0.0345
     29 C           1.0085   -3.3612   -2.9382 C.ar    1  LIG1       -0.0611
     30 C          -1.6105    3.8059   -0.4519 C.ar    1  LIG1        0.2271
     31 C           2.3335   -3.5741   -2.5799 C.ar    1  LIG1       -0.0599
     32 C           5.9393   -0.4139   -0.6213 C.ar    1  LIG1        0.1837
     33 C           6.8719    0.3704    0.1068 C.ar    1  LIG1        0.0342
     34 C           7.8323    0.6818   -0.8337 C.ar    1  LIG1        0.1390
     35 C           6.8284    0.8174    1.5158 C.3     1  LIG1       -0.0330
     36 C          -3.0456    5.0657    0.5547 C.ar    1  LIG1        0.1125
     37 C          -2.2072    5.8294   -0.2150 C.ar    1  LIG1        0.0663
     38 C           9.0584    1.5042   -0.8102 C.3     1  LIG1       -0.0034
     39 H           4.7322   -1.0531    0.8954 H       1  LIG1        0.1753
     40 H          -5.1443   -1.5721    2.0633 H       1  LIG1        0.0364
     41 H          -4.2389   -0.1385    2.5787 H       1  LIG1        0.0364
     42 H          -7.2337   -1.2242    0.5775 H       1  LIG1        0.0235
     43 H          -6.5532   -0.0655   -0.5789 H       1  LIG1        0.0235
     44 H          -7.9193    0.3981    0.4171 H       1  LIG1        0.0235
     45 H          -7.2105   -0.6048    3.1097 H       1  LIG1        0.0235
     46 H          -7.7024    1.0583    2.7598 H       1  LIG1        0.0235
     47 H          -6.2185    0.7506    3.6702 H       1  LIG1        0.0235
     48 H          -5.0438    1.8155    0.2313 H       1  LIG1        0.0235
     49 H          -4.9141    2.1687    1.9606 H       1  LIG1        0.0235
     50 H          -6.4364    2.4550    1.1090 H       1  LIG1        0.0235
     51 H          -2.0961   -1.6276   -1.1117 H       1  LIG1        0.0514
     52 H          -0.8146   -1.9796    0.0520 H       1  LIG1        0.0514
     53 H          -2.7996   -1.6022    2.9240 H       1  LIG1        0.0429
     54 H          -1.4833   -0.4627    2.5241 H       1  LIG1        0.0429
     55 H          -1.3189   -2.2126    2.1959 H       1  LIG1        0.0429
     56 H          -2.3693    1.3293    0.3037 H       1  LIG1        0.0628
     57 H           1.5432    1.3258   -2.7045 H       1  LIG1        0.0624
     58 H           0.4984    3.4297   -2.0773 H       1  LIG1        0.0625
     59 H          -0.6563   -2.0190   -2.9167 H       1  LIG1        0.0624
     60 H           4.0719   -2.7760   -1.6364 H       1  LIG1        0.0637
     61 H           0.4677   -4.1184   -3.5013 H       1  LIG1        0.0618
     62 H           2.8326   -4.4986   -2.8612 H       1  LIG1        0.0618
     63 H           5.9227    0.4765    2.0250 H       1  LIG1        0.0280
     64 H           6.8515    1.9106    1.5720 H       1  LIG1        0.0280
     65 H           7.6907    0.4266    2.0654 H       1  LIG1        0.0280
     66 H          -3.8853    5.2628    1.2036 H       1  LIG1        0.1046
     67 H          -2.2100    6.9020   -0.3473 H       1  LIG1        0.0862
     68 H           9.5156    1.5756   -1.8021 H       1  LIG1        0.0309
     69 H           9.7952    1.0739   -0.1251 H       1  LIG1        0.0309
     70 H           8.8292    2.5200   -0.4721 H       1  LIG1        0.0309
@<TRIPOS>BOND
     1     1     3    2
     2     1     4    2
     3     1     8    1
     4     1    23    1
     5     2    16    2
     6     5    30   ar
     7     5    36   ar
     8     6    10   ar
     9     6    34   ar
    10     7    16   am
    11     7    17    1
    12     7    21    1
    13     8    32    1
    14     9    30   ar
    15     9    37   ar
    16    10    32   ar
    17    11    12    1
    18    11    13    1
    19    11    14    1
    20    11    15    1
    21    12    16    1
    22    17    18    1
    23    18    19   ar
    24    18    22   ar
    25    19    20    1
    26    19    24   ar
    27    20    23   ar
    28    20    27   ar
    29    22    25   ar
    30    23    28   ar
    31    24    26   ar
    32    25    26   ar
    33    25    30    1
    34    27    29   ar
    35    28    31   ar
    36    29    31   ar
    37    32    33   ar
    38    33    34   ar
    39    33    35    1
    40    34    38    1
    41    36    37   ar
    42     8    39    1
    43    12    40    1
    44    12    41    1
    45    13    42    1
    46    13    43    1
    47    13    44    1
    48    14    45    1
    49    14    46    1
    50    14    47    1
    51    15    48    1
    52    15    49    1
    53    15    50    1
    54    17    51    1
    55    17    52    1
    56    21    53    1
    57    21    54    1
    58    21    55    1
    59    22    56    1
    60    24    57    1
    61    26    58    1
    62    27    59    1
    63    28    60    1
    64    29    61    1
    65    31    62    1
    66    35    63    1
    67    35    64    1
    68    35    65    1
    69    36    66    1
    70    37    67    1
    71    38    68    1
    72    38    69    1
    73    38    70    1
@<TRIPOS>MOLECULE
156690
 70 73 0 0 0
SMALL
GASTEIGER

@<TRIPOS>ATOM
      1 S           2.7378   -0.0345   -3.2457 S.O2    1  LIG1        0.0741
      2 O          -2.0529   -1.0410   -3.6506 O.2     1  LIG1       -0.2756
      3 O           3.2923   -0.6279   -4.4478 O.2     1  LIG1       -0.1499
      4 O           1.7329    0.9921   -3.3274 O.2     1  LIG1       -0.1499
      5 O          -3.0679    3.5554    0.1628 O.2     1  LIG1       -0.4436
      6 O           4.9469    3.8261   -1.7838 O.2     1  LIG1       -0.3578
      7 N          -3.0274   -1.2122   -1.5942 N.am    1  LIG1       -0.3002
      8 N           4.0428    0.5023   -2.2988 N.pl3   1  LIG1       -0.1965
      9 N          -1.2781    4.8935   -0.1613 N.ar    1  LIG1       -0.2175
     10 N           4.3950    2.6297   -1.3744 N.ar    1  LIG1       -0.0614
     11 C          -4.5350   -0.5035   -5.0806 C.3     1  LIG1       -0.0295
     12 C          -4.4635   -1.0243   -3.6215 C.3     1  LIG1        0.0290
     13 C          -3.6939   -1.3408   -6.0597 C.3     1  LIG1       -0.0596
     14 C          -6.0069   -0.5914   -5.5369 C.3     1  LIG1       -0.0596
     15 C          -4.0955    0.9696   -5.1367 C.3     1  LIG1       -0.0596
     16 C          -3.0821   -1.0751   -2.9779 C.2     1  LIG1        0.2161
     17 C          -1.6978   -1.3190   -0.9958 C.3     1  LIG1        0.0400
     18 C          -0.9350   -0.0106   -0.8100 C.ar    1  LIG1       -0.0216
     19 C           0.4909    0.0130   -0.7844 C.ar    1  LIG1       -0.0113
     20 C           1.3063   -1.1941   -1.0753 C.ar    1  LIG1        0.0090
     21 C          -4.1649   -1.4441   -0.7129 C.3     1  LIG1        0.0035
     22 C          -1.6511    1.1855   -0.5670 C.ar    1  LIG1       -0.0442
     23 C           2.1750   -1.3685   -2.1788 C.ar    1  LIG1        0.1162
     24 C           1.1192    1.2221   -0.4421 C.ar    1  LIG1       -0.0529
     25 C          -1.0001    2.4009   -0.3153 C.ar    1  LIG1        0.0372
     26 C           0.3925    2.3995   -0.2448 C.ar    1  LIG1       -0.0489
     27 C           1.1704   -2.2971   -0.1995 C.ar    1  LIG1       -0.0521
     28 C           2.7673   -2.6226   -2.4385 C.ar    1  LIG1       -0.0345
     29 C           1.7723   -3.5325   -0.4543 C.ar    1  LIG1       -0.0611
     30 C          -1.7282    3.6519   -0.1256 C.ar    1  LIG1        0.2271
     31 C           2.5524   -3.7018   -1.5882 C.ar    1  LIG1       -0.0599
     32 C           4.4802    1.8137   -2.4270 C.ar    1  LIG1        0.1837
     33 C           5.1844    2.4089   -3.5005 C.ar    1  LIG1        0.0342
     34 C           5.4272    3.6905   -3.0469 C.ar    1  LIG1        0.1390
     35 C           5.6348    1.8125   -4.7763 C.3     1  LIG1       -0.0330
     36 C          -3.4717    4.8486    0.3031 C.ar    1  LIG1        0.1125
     37 C          -2.3866    5.6585    0.0898 C.ar    1  LIG1        0.0663
     38 C           6.1168    4.8679   -3.6071 C.3     1  LIG1       -0.0034
     39 H           3.8943    0.2653   -1.3213 H       1  LIG1        0.1753
     40 H          -4.8719   -2.0424   -3.5749 H       1  LIG1        0.0364
     41 H          -5.1023   -0.3744   -3.0116 H       1  LIG1        0.0364
     42 H          -3.8908   -2.4111   -5.9355 H       1  LIG1        0.0235
     43 H          -2.6199   -1.1766   -5.9366 H       1  LIG1        0.0235
     44 H          -3.9266   -1.0783   -7.0983 H       1  LIG1        0.0235
     45 H          -6.3548   -1.6307   -5.5452 H       1  LIG1        0.0235
     46 H          -6.1336   -0.1905   -6.5491 H       1  LIG1        0.0235
     47 H          -6.6655   -0.0235   -4.8705 H       1  LIG1        0.0235
     48 H          -3.0497    1.0940   -4.8369 H       1  LIG1        0.0235
     49 H          -4.7066    1.5881   -4.4692 H       1  LIG1        0.0235
     50 H          -4.1973    1.3744   -6.1496 H       1  LIG1        0.0235
     51 H          -1.1309   -2.0086   -1.6293 H       1  LIG1        0.0514
     52 H          -1.7995   -1.7901   -0.0102 H       1  LIG1        0.0514
     53 H          -5.1229   -1.4305   -1.2319 H       1  LIG1        0.0429
     54 H          -4.1723   -0.6775    0.0669 H       1  LIG1        0.0429
     55 H          -4.0503   -2.4282   -0.2478 H       1  LIG1        0.0429
     56 H          -2.7381    1.1743   -0.5998 H       1  LIG1        0.0628
     57 H           2.1972    1.2856   -0.3472 H       1  LIG1        0.0624
     58 H           0.9314    3.3252   -0.0448 H       1  LIG1        0.0625
     59 H           0.5553   -2.2045    0.6956 H       1  LIG1        0.0624
     60 H           3.4184   -2.7626   -3.3009 H       1  LIG1        0.0637
     61 H           1.6161   -4.3649    0.2275 H       1  LIG1        0.0618
     62 H           3.0107   -4.6644   -1.8029 H       1  LIG1        0.0618
     63 H           5.5169    0.7264   -4.7846 H       1  LIG1        0.0280
     64 H           6.6998    2.0194   -4.9340 H       1  LIG1        0.0280
     65 H           5.0766    2.2315   -5.6186 H       1  LIG1        0.0280
     66 H          -4.5126    5.0085    0.5407 H       1  LIG1        0.1046
     67 H          -2.3404    6.7382    0.1085 H       1  LIG1        0.0862
     68 H           5.7744    5.7910   -3.1287 H       1  LIG1        0.0309
     69 H           5.9294    4.9551   -4.6814 H       1  LIG1        0.0309
     70 H           7.1965    4.7826   -3.4507 H       1  LIG1        0.0309
@<TRIPOS>BOND
     1     1     3    2
     2     1     4    2
     3     1     8    1
     4     1    23    1
     5     2    16    2
     6     5    30   ar
     7     5    36   ar
     8     6    10   ar
     9     6    34   ar
    10     7    16   am
    11     7    17    1
    12     7    21    1
    13     8    32    1
    14     9    30   ar
    15     9    37   ar
    16    10    32   ar
    17    11    12    1
    18    11    13    1
    19    11    14    1
    20    11    15    1
    21    12    16    1
    22    17    18    1
    23    18    19   ar
    24    18    22   ar
    25    19    20    1
    26    19    24   ar
    27    20    23   ar
    28    20    27   ar
    29    22    25   ar
    30    23    28   ar
    31    24    26   ar
    32    25    26   ar
    33    25    30    1
    34    27    29   ar
    35    28    31   ar
    36    29    31   ar
    37    32    33   ar
    38    33    34   ar
    39    33    35    1
    40    34    38    1
    41    36    37   ar
    42     8    39    1
    43    12    40    1
    44    12    41    1
    45    13    42    1
    46    13    43    1
    47    13    44    1
    48    14    45    1
    49    14    46    1
    50    14    47    1
    51    15    48    1
    52    15    49    1
    53    15    50    1
    54    17    51    1
    55    17    52    1
    56    21    53    1
    57    21    54    1
    58    21    55    1
    59    22    56    1
    60    24    57    1
    61    26    58    1
    62    27    59    1
    63    28    60    1
    64    29    61    1
    65    31    62    1
    66    35    63    1
    67    35    64    1
    68    35    65    1
    69    36    66    1
    70    37    67    1
    71    38    68    1
    72    38    69    1
    73    38    70    1
@<TRIPOS>MOLECULE
156690
 70 73 0 0 0
SMALL
GASTEIGER

@<TRIPOS>ATOM
      1 S           3.3696   -0.4661   -0.2057 S.O2    1  LIG1        0.0741
      2 O          -2.1436   -0.8760   -3.3967 O.2     1  LIG1       -0.2756
      3 O           2.4162    0.2707    0.5948 O.2     1  LIG1       -0.1499
      4 O           4.4127   -1.2159    0.4717 O.2     1  LIG1       -0.1499
      5 O          -2.8025    3.6794   -0.2626 O.2     1  LIG1       -0.4436
      6 O           6.4851   -0.7571   -3.3823 O.2     1  LIG1       -0.3578
      7 N          -3.0001   -1.2634   -1.3031 N.am    1  LIG1       -0.3002
      8 N           4.1140    0.6534   -1.2111 N.pl3   1  LIG1       -0.1965
      9 N          -1.0320    4.9617   -0.8302 N.ar    1  LIG1       -0.2175
     10 N           5.3132   -0.8262   -2.6627 N.ar    1  LIG1       -0.0614
     11 C          -4.6571   -0.5704   -4.7446 C.3     1  LIG1       -0.0295
     12 C          -4.5233   -1.0976   -3.2855 C.3     1  LIG1        0.0290
     13 C          -6.1347   -0.7171   -5.1654 C.3     1  LIG1       -0.0596
     14 C          -4.2828    0.9209   -4.8227 C.3     1  LIG1       -0.0596
     15 C          -3.8101   -1.3747   -5.7491 C.3     1  LIG1       -0.0596
     16 C          -3.1225   -1.0656   -2.6788 C.2     1  LIG1        0.2161
     17 C          -1.6552   -1.2455   -0.6848 C.3     1  LIG1        0.0400
     18 C          -0.8436   -0.0014   -1.0082 C.ar    1  LIG1       -0.0216
     19 C           0.4402   -0.0227   -1.6188 C.ar    1  LIG1       -0.0113
     20 C           1.2225   -1.2649   -1.8640 C.ar    1  LIG1        0.0090
     21 C          -4.0850   -1.7157   -0.4448 C.3     1  LIG1        0.0035
     22 C          -1.4586    1.2394   -0.7098 C.ar    1  LIG1       -0.0442
     23 C           2.4827   -1.5641   -1.2975 C.ar    1  LIG1        0.1162
     24 C           0.9747    1.2140   -2.0302 C.ar    1  LIG1       -0.0529
     25 C          -0.8757    2.4605   -1.0578 C.ar    1  LIG1        0.0372
     26 C           0.3400    2.4310   -1.7433 C.ar    1  LIG1       -0.0489
     27 C           0.6946   -2.2378   -2.7417 C.ar    1  LIG1       -0.0521
     28 C           3.1037   -2.8116   -1.5333 C.ar    1  LIG1       -0.0345
     29 C           1.3137   -3.4699   -2.9751 C.ar    1  LIG1       -0.0611
     30 C          -1.5132    3.7345   -0.7365 C.ar    1  LIG1        0.2271
     31 C           2.5182   -3.7622   -2.3609 C.ar    1  LIG1       -0.0599
     32 C           5.1981    0.3361   -2.0184 C.ar    1  LIG1        0.1837
     33 C           6.2914    1.1964   -2.3153 C.ar    1  LIG1        0.0342
     34 C           7.0741    0.4463   -3.1703 C.ar    1  LIG1        0.1390
     35 C           6.5898    2.5508   -1.8012 C.3     1  LIG1       -0.0330
     36 C          -3.1371    4.9810   -0.0479 C.ar    1  LIG1        0.1125
     37 C          -2.0582    5.7564   -0.3848 C.ar    1  LIG1        0.0663
     38 C           8.3688    0.6670   -3.8445 C.3     1  LIG1       -0.0034
     39 H           3.9619    1.6076   -0.9011 H       1  LIG1        0.1753
     40 H          -4.8644   -2.1400   -3.2504 H       1  LIG1        0.0364
     41 H          -5.1827   -0.4969   -2.6468 H       1  LIG1        0.0364
     42 H          -6.7976   -0.1640   -4.4911 H       1  LIG1        0.0235
     43 H          -6.4446   -1.7682   -5.1550 H       1  LIG1        0.0235
     44 H          -6.2984   -0.3335   -6.1793 H       1  LIG1        0.0235
     45 H          -4.8899    1.5159   -4.1311 H       1  LIG1        0.0235
     46 H          -4.4473    1.3159   -5.8319 H       1  LIG1        0.0235
     47 H          -3.2312    1.0955   -4.5750 H       1  LIG1        0.0235
     48 H          -3.9778   -2.4510   -5.6353 H       1  LIG1        0.0235
     49 H          -2.7382   -1.1870   -5.6434 H       1  LIG1        0.0235
     50 H          -4.0665   -1.1059   -6.7809 H       1  LIG1        0.0235
     51 H          -1.1625   -2.1777   -0.9629 H       1  LIG1        0.0514
     52 H          -1.7761   -1.2749    0.4062 H       1  LIG1        0.0514
     53 H          -5.0202   -1.8776   -0.9809 H       1  LIG1        0.0429
     54 H          -4.2479   -0.9636    0.3326 H       1  LIG1        0.0429
     55 H          -3.7943   -2.6627    0.0205 H       1  LIG1        0.0429
     56 H          -2.4274    1.2348   -0.2120 H       1  LIG1        0.0628
     57 H           1.9046    1.2401   -2.5935 H       1  LIG1        0.0624
     58 H           0.8039    3.3620   -2.0641 H       1  LIG1        0.0625
     59 H          -0.2386   -2.0482   -3.2636 H       1  LIG1        0.0624
     60 H           4.0701   -3.0429   -1.0860 H       1  LIG1        0.0637
     61 H           0.8466   -4.1918   -3.6400 H       1  LIG1        0.0618
     62 H           3.0127   -4.7131   -2.5377 H       1  LIG1        0.0618
     63 H           5.7377    2.9842   -1.2712 H       1  LIG1        0.0280
     64 H           6.8536    3.2274   -2.6208 H       1  LIG1        0.0280
     65 H           7.4357    2.5109   -1.1062 H       1  LIG1        0.0280
     66 H          -4.1306    5.1695    0.3303 H       1  LIG1        0.1046
     67 H          -1.9655    6.8322   -0.3327 H       1  LIG1        0.0862
     68 H           8.5269   -0.0547   -4.6523 H       1  LIG1        0.0309
     69 H           9.1907    0.5614   -3.1294 H       1  LIG1        0.0309
     70 H           8.4165    1.6712   -4.2771 H       1  LIG1        0.0309
@<TRIPOS>BOND
     1     1     3    2
     2     1     4    2
     3     1     8    1
     4     1    23    1
     5     2    16    2
     6     5    30   ar
     7     5    36   ar
     8     6    10   ar
     9     6    34   ar
    10     7    16   am
    11     7    17    1
    12     7    21    1
    13     8    32    1
    14     9    30   ar
    15     9    37   ar
    16    10    32   ar
    17    11    12    1
    18    11    13    1
    19    11    14    1
    20    11    15    1
    21    12    16    1
    22    17    18    1
    23    18    19   ar
    24    18    22   ar
    25    19    20    1
    26    19    24   ar
    27    20    23   ar
    28    20    27   ar
    29    22    25   ar
    30    23    28   ar
    31    24    26   ar
    32    25    26   ar
    33    25    30    1
    34    27    29   ar
    35    28    31   ar
    36    29    31   ar
    37    32    33   ar
    38    33    34   ar
    39    33    35    1
    40    34    38    1
    41    36    37   ar
    42     8    39    1
    43    12    40    1
    44    12    41    1
    45    13    42    1
    46    13    43    1
    47    13    44    1
    48    14    45    1
    49    14    46    1
    50    14    47    1
    51    15    48    1
    52    15    49    1
    53    15    50    1
    54    17    51    1
    55    17    52    1
    56    21    53    1
    57    21    54    1
    58    21    55    1
    59    22    56    1
    60    24    57    1
    61    26    58    1
    62    27    59    1
    63    28    60    1
    64    29    61    1
    65    31    62    1
    66    35    63    1
    67    35    64    1
    68    35    65    1
    69    36    66    1
    70    37    67    1
    71    38    68    1
    72    38    69    1
    73    38    70    1
@<TRIPOS>MOLECULE
156690
 70 73 0 0 0
SMALL
GASTEIGER

@<TRIPOS>ATOM
      1 S           3.5591   -0.2817   -0.7914 S.O2    1  LIG1        0.0741
      2 O          -4.4734   -0.8524   -0.6943 O.2     1  LIG1       -0.2756
      3 O           2.9950    0.8290   -0.0618 O.2     1  LIG1       -0.1499
      4 O           4.5470   -1.1229   -0.1399 O.2     1  LIG1       -0.1499
      5 O          -3.2887    3.7653   -0.0451 O.2     1  LIG1       -0.4436
      6 O           2.4387    0.8786   -5.0550 O.2     1  LIG1       -0.3578
      7 N          -2.7596   -1.1521    0.7974 N.am    1  LIG1       -0.3002
      8 N           4.3726    0.2770   -2.1875 N.pl3   1  LIG1       -0.1965
      9 N          -1.4862    5.1013   -0.2986 N.ar    1  LIG1       -0.2175
     10 N           2.9498    1.2586   -3.8353 N.ar    1  LIG1       -0.0614
     11 C          -6.2864   -1.5495    1.6863 C.3     1  LIG1       -0.0295
     12 C          -5.0744   -0.5893    1.6016 C.3     1  LIG1        0.0290
     13 C          -7.0234   -1.2753    3.0128 C.3     1  LIG1       -0.0596
     14 C          -7.2764   -1.3024    0.5337 C.3     1  LIG1       -0.0596
     15 C          -5.8384   -3.0195    1.6706 C.3     1  LIG1       -0.0596
     16 C          -4.0892   -0.8968    0.4775 C.2     1  LIG1        0.2161
     17 C          -1.7816   -1.1763   -0.2964 C.3     1  LIG1        0.0400
     18 C          -1.0822    0.1507   -0.5968 C.ar    1  LIG1       -0.0216
     19 C           0.1941    0.2062   -1.2410 C.ar    1  LIG1       -0.0113
     20 C           0.9389   -1.0188   -1.6831 C.ar    1  LIG1        0.0090
     21 C          -2.2194   -1.2589    2.1451 C.3     1  LIG1        0.0035
     22 C          -1.7750    1.3599   -0.3166 C.ar    1  LIG1       -0.0442
     23 C           2.2799   -1.3770   -1.4080 C.ar    1  LIG1        0.1162
     24 C           0.6928    1.4898   -1.5150 C.ar    1  LIG1       -0.0529
     25 C          -1.2363    2.6200   -0.5937 C.ar    1  LIG1        0.0372
     26 C           0.0181    2.6678   -1.1815 C.ar    1  LIG1       -0.0489
     27 C           0.2137   -1.9622   -2.4563 C.ar    1  LIG1       -0.0521
     28 C           2.7485   -2.6881   -1.6844 C.ar    1  LIG1       -0.0345
     29 C           0.6958   -3.2395   -2.7646 C.ar    1  LIG1       -0.0611
     30 C          -1.9446    3.8621   -0.3067 C.ar    1  LIG1        0.2271
     31 C           1.9535   -3.6198   -2.3384 C.ar    1  LIG1       -0.0599
     32 C           3.7364    0.2631   -3.4307 C.ar    1  LIG1        0.1837
     33 C           3.8737   -0.7214   -4.4465 C.ar    1  LIG1        0.0342
     34 C           2.9761   -0.3136   -5.4133 C.ar    1  LIG1        0.1390
     35 C           4.7092   -1.9399   -4.4709 C.3     1  LIG1       -0.0330
     36 C          -3.6878    5.0554    0.1281 C.ar    1  LIG1        0.1125
     37 C          -2.5894    5.8628   -0.0152 C.ar    1  LIG1        0.0663
     38 C           2.5010   -0.8861   -6.6872 C.3     1  LIG1       -0.0034
     39 H           5.2811   -0.1817   -2.1767 H       1  LIG1        0.1753
     40 H          -4.5750   -0.5363    2.5702 H       1  LIG1        0.0364
     41 H          -5.4266    0.4366    1.4240 H       1  LIG1        0.0364
     42 H          -7.3550   -0.2324    3.0721 H       1  LIG1        0.0235
     43 H          -6.3744   -1.4697    3.8742 H       1  LIG1        0.0235
     44 H          -7.9087   -1.9130    3.1156 H       1  LIG1        0.0235
     45 H          -7.5807   -0.2503    0.4924 H       1  LIG1        0.0235
     46 H          -8.1846   -1.9032    0.6595 H       1  LIG1        0.0235
     47 H          -6.8501   -1.5676   -0.4383 H       1  LIG1        0.0235
     48 H          -5.1156   -3.2212    2.4685 H       1  LIG1        0.0235
     49 H          -5.3723   -3.2902    0.7171 H       1  LIG1        0.0235
     50 H          -6.6916   -3.6921    1.8157 H       1  LIG1        0.0235
     51 H          -2.2912   -1.4987   -1.2106 H       1  LIG1        0.0514
     52 H          -1.0479   -1.9471   -0.0378 H       1  LIG1        0.0514
     53 H          -2.9566   -1.6647    2.8397 H       1  LIG1        0.0429
     54 H          -1.8946   -0.2700    2.4778 H       1  LIG1        0.0429
     55 H          -1.3669   -1.9452    2.1458 H       1  LIG1        0.0429
     56 H          -2.7690    1.3222    0.1208 H       1  LIG1        0.0628
     57 H           1.6507    1.6287   -1.9922 H       1  LIG1        0.0624
     58 H           0.4862    3.6243   -1.4094 H       1  LIG1        0.0625
     59 H          -0.7822   -1.7084   -2.8212 H       1  LIG1        0.0624
     60 H           3.7602   -2.9877   -1.4109 H       1  LIG1        0.0637
     61 H           0.0714   -3.9361   -3.3185 H       1  LIG1        0.0618
     62 H           2.3308   -4.6182   -2.5438 H       1  LIG1        0.0618
     63 H           5.2974   -2.0476   -3.5552 H       1  LIG1        0.0280
     64 H           5.4057   -1.9034   -5.3146 H       1  LIG1        0.0280
     65 H           4.0850   -2.8319   -4.5809 H       1  LIG1        0.0280
     66 H          -4.7353    5.2142    0.3335 H       1  LIG1        0.1046
     67 H          -2.5323    6.9392    0.0622 H       1  LIG1        0.0862
     68 H           1.6883   -0.2901   -7.1148 H       1  LIG1        0.0309
     69 H           2.1215   -1.9005   -6.5283 H       1  LIG1        0.0309
     70 H           3.3134   -0.9303   -7.4178 H       1  LIG1        0.0309
@<TRIPOS>BOND
     1     1     3    2
     2     1     4    2
     3     1     8    1
     4     1    23    1
     5     2    16    2
     6     5    30   ar
     7     5    36   ar
     8     6    10   ar
     9     6    34   ar
    10     7    16   am
    11     7    17    1
    12     7    21    1
    13     8    32    1
    14     9    30   ar
    15     9    37   ar
    16    10    32   ar
    17    11    12    1
    18    11    13    1
    19    11    14    1
    20    11    15    1
    21    12    16    1
    22    17    18    1
    23    18    19   ar
    24    18    22   ar
    25    19    20    1
    26    19    24   ar
    27    20    23   ar
    28    20    27   ar
    29    22    25   ar
    30    23    28   ar
    31    24    26   ar
    32    25    26   ar
    33    25    30    1
    34    27    29   ar
    35    28    31   ar
    36    29    31   ar
    37    32    33   ar
    38    33    34   ar
    39    33    35    1
    40    34    38    1
    41    36    37   ar
    42     8    39    1
    43    12    40    1
    44    12    41    1
    45    13    42    1
    46    13    43    1
    47    13    44    1
    48    14    45    1
    49    14    46    1
    50    14    47    1
    51    15    48    1
    52    15    49    1
    53    15    50    1
    54    17    51    1
    55    17    52    1
    56    21    53    1
    57    21    54    1
    58    21    55    1
    59    22    56    1
    60    24    57    1
    61    26    58    1
    62    27    59    1
    63    28    60    1
    64    29    61    1
    65    31    62    1
    66    35    63    1
    67    35    64    1
    68    35    65    1
    69    36    66    1
    70    37    67    1
    71    38    68    1
    72    38    69    1
    73    38    70    1
@<TRIPOS>MOLECULE
156690
 70 73 0 0 0
SMALL
GASTEIGER

@<TRIPOS>ATOM
      1 S           2.7334   -0.1461   -3.2586 S.O2    1  LIG1        0.0741
      2 O          -2.0508   -1.0413   -3.6346 O.2     1  LIG1       -0.2756
      3 O           3.2501   -0.7950   -4.4524 O.2     1  LIG1       -0.1499
      4 O           1.7573    0.9141   -3.3476 O.2     1  LIG1       -0.1499
      5 O          -3.0898    3.5659    0.1405 O.2     1  LIG1       -0.4436
      6 O           5.6122    3.4714   -2.8125 O.2     1  LIG1       -0.3578
      7 N          -3.0297   -1.2095   -1.5799 N.am    1  LIG1       -0.3002
      8 N           4.0615    0.3886   -2.3380 N.pl3   1  LIG1       -0.1965
      9 N          -1.3050    4.9116   -0.1739 N.ar    1  LIG1       -0.2175
     10 N           4.6787    2.6528   -2.2076 N.ar    1  LIG1       -0.0614
     11 C          -4.5316   -0.5069   -5.0687 C.3     1  LIG1       -0.0295
     12 C          -4.4614   -1.0230   -3.6087 C.3     1  LIG1        0.0290
     13 C          -3.6912   -1.3507   -6.0435 C.3     1  LIG1       -0.0596
     14 C          -6.0037   -0.5947   -5.5247 C.3     1  LIG1       -0.0596
     15 C          -4.0898    0.9641   -5.1310 C.3     1  LIG1       -0.0596
     16 C          -3.0804   -1.0750   -2.9628 C.2     1  LIG1        0.2161
     17 C          -1.7003   -1.3083   -0.9769 C.3     1  LIG1        0.0400
     18 C          -0.9406    0.0046   -0.8115 C.ar    1  LIG1       -0.0216
     19 C           0.4859    0.0323   -0.7890 C.ar    1  LIG1       -0.0113
     20 C           1.2975   -1.1893   -1.0344 C.ar    1  LIG1        0.0090
     21 C          -4.1677   -1.4471   -0.7017 C.3     1  LIG1        0.0035
     22 C          -1.6631    1.1999   -0.5800 C.ar    1  LIG1       -0.0442
     23 C           2.1576   -1.4235   -2.1350 C.ar    1  LIG1        0.1162
     24 C           1.1068    1.2531   -0.4762 C.ar    1  LIG1       -0.0529
     25 C          -1.0182    2.4227   -0.3479 C.ar    1  LIG1        0.0372
     26 C           0.3747    2.4308   -0.2942 C.ar    1  LIG1       -0.0489
     27 C           1.1532   -2.2539   -0.1122 C.ar    1  LIG1       -0.0521
     28 C           2.7226   -2.6991   -2.3478 C.ar    1  LIG1       -0.0345
     29 C           1.7303   -3.5101   -0.3213 C.ar    1  LIG1       -0.0611
     30 C          -1.7521    3.6693   -0.1514 C.ar    1  LIG1        0.2271
     31 C           2.4959   -3.7397   -1.4543 C.ar    1  LIG1       -0.0599
     32 C           4.7963    1.4687   -2.8108 C.ar    1  LIG1        0.1837
     33 C           5.8591    1.4507   -3.7442 C.ar    1  LIG1        0.0342
     34 C           6.3273    2.7492   -3.7135 C.ar    1  LIG1        0.1390
     35 C           6.4128    0.3147   -4.5109 C.3     1  LIG1       -0.0330
     36 C          -3.4970    4.8572    0.2969 C.ar    1  LIG1        0.1125
     37 C          -2.4142    5.6712    0.0897 C.ar    1  LIG1        0.0663
     38 C           7.4330    3.4589   -4.3827 C.3     1  LIG1       -0.0034
     39 H           3.7170    0.6244   -1.4130 H       1  LIG1        0.1753
     40 H          -4.8731   -2.0396   -3.5577 H       1  LIG1        0.0364
     41 H          -5.0986   -0.3687   -3.0000 H       1  LIG1        0.0364
     42 H          -3.8901   -2.4196   -5.9146 H       1  LIG1        0.0235
     43 H          -2.6175   -1.1874   -5.9201 H       1  LIG1        0.0235
     44 H          -3.9227   -1.0921   -7.0837 H       1  LIG1        0.0235
     45 H          -6.3537   -1.6333   -5.5279 H       1  LIG1        0.0235
     46 H          -6.1292   -0.1988   -6.5396 H       1  LIG1        0.0235
     47 H          -6.6611   -0.0219   -4.8619 H       1  LIG1        0.0235
     48 H          -3.0436    1.0889   -4.8325 H       1  LIG1        0.0235
     49 H          -4.6999    1.5872   -4.4654 H       1  LIG1        0.0235
     50 H          -4.1916    1.3658   -6.1456 H       1  LIG1        0.0235
     51 H          -1.1323   -2.0072   -1.6010 H       1  LIG1        0.0514
     52 H          -1.8035   -1.7640    0.0145 H       1  LIG1        0.0514
     53 H          -5.1243   -1.4306   -1.2199 H       1  LIG1        0.0429
     54 H          -4.1757   -0.6850    0.0845 H       1  LIG1        0.0429
     55 H          -4.0521   -2.4347   -0.2410 H       1  LIG1        0.0429
     56 H          -2.7507    1.1809   -0.6013 H       1  LIG1        0.0628
     57 H           2.1829    1.3304   -0.3774 H       1  LIG1        0.0624
     58 H           0.9066    3.3622   -0.1108 H       1  LIG1        0.0625
     59 H           0.5461   -2.1147    0.7823 H       1  LIG1        0.0624
     60 H           3.3646   -2.8853   -3.2101 H       1  LIG1        0.0637
     61 H           1.5654   -4.3105    0.3958 H       1  LIG1        0.0618
     62 H           2.9322   -4.7190   -1.6345 H       1  LIG1        0.0618
     63 H           5.9327   -0.6322   -4.2475 H       1  LIG1        0.0280
     64 H           7.4839    0.2042   -4.3014 H       1  LIG1        0.0280
     65 H           6.2897    0.4767   -5.5855 H       1  LIG1        0.0280
     66 H          -4.5362    5.0115    0.5399 H       1  LIG1        0.1046
     67 H          -2.3706    6.7519    0.1214 H       1  LIG1        0.0862
     68 H           7.3187    4.5456   -4.2958 H       1  LIG1        0.0309
     69 H           7.4711    3.2064   -5.4458 H       1  LIG1        0.0309
     70 H           8.3894    3.1822   -3.9269 H       1  LIG1        0.0309
@<TRIPOS>BOND
     1     1     3    2
     2     1     4    2
     3     1     8    1
     4     1    23    1
     5     2    16    2
     6     5    30   ar
     7     5    36   ar
     8     6    10   ar
     9     6    34   ar
    10     7    16   am
    11     7    17    1
    12     7    21    1
    13     8    32    1
    14     9    30   ar
    15     9    37   ar
    16    10    32   ar
    17    11    12    1
    18    11    13    1
    19    11    14    1
    20    11    15    1
    21    12    16    1
    22    17    18    1
    23    18    19   ar
    24    18    22   ar
    25    19    20    1
    26    19    24   ar
    27    20    23   ar
    28    20    27   ar
    29    22    25   ar
    30    23    28   ar
    31    24    26   ar
    32    25    26   ar
    33    25    30    1
    34    27    29   ar
    35    28    31   ar
    36    29    31   ar
    37    32    33   ar
    38    33    34   ar
    39    33    35    1
    40    34    38    1
    41    36    37   ar
    42     8    39    1
    43    12    40    1
    44    12    41    1
    45    13    42    1
    46    13    43    1
    47    13    44    1
    48    14    45    1
    49    14    46    1
    50    14    47    1
    51    15    48    1
    52    15    49    1
    53    15    50    1
    54    17    51    1
    55    17    52    1
    56    21    53    1
    57    21    54    1
    58    21    55    1
    59    22    56    1
    60    24    57    1
    61    26    58    1
    62    27    59    1
    63    28    60    1
    64    29    61    1
    65    31    62    1
    66    35    63    1
    67    35    64    1
    68    35    65    1
    69    36    66    1
    70    37    67    1
    71    38    68    1
    72    38    69    1
    73    38    70    1
@<TRIPOS>MOLECULE
156690
 70 73 0 0 0
SMALL
GASTEIGER

@<TRIPOS>ATOM
      1 S           2.2756   -0.3424   -3.5799 S.O2    1  LIG1        0.0741
      2 O          -3.6629   -2.4763    2.3278 O.2     1  LIG1       -0.2756
      3 O           2.7629   -1.0397   -4.7545 O.2     1  LIG1       -0.1499
      4 O           1.1111    0.5085   -3.7104 O.2     1  LIG1       -0.1499
      5 O          -0.6826    4.9735   -0.5818 O.2     1  LIG1       -0.4436
      6 O           6.5026   -1.0836   -2.3623 O.2     1  LIG1       -0.3578
      7 N          -2.3145   -1.3756    0.8425 N.am    1  LIG1       -0.3002
      8 N           3.5231    0.6443   -3.0245 N.pl3   1  LIG1       -0.1965
      9 N          -2.6746    4.0830    0.0026 N.ar    1  LIG1       -0.2175
     10 N           5.1334   -0.9562   -2.2859 N.ar    1  LIG1       -0.0614
     11 C          -5.7286   -2.8598    0.2439 C.3     1  LIG1       -0.0295
     12 C          -4.1864   -2.8609    0.0275 C.3     1  LIG1        0.0290
     13 C          -6.2458   -1.4297    0.4806 C.3     1  LIG1       -0.0596
     14 C          -6.3917   -3.4093   -1.0364 C.3     1  LIG1       -0.0596
     15 C          -6.1611   -3.7622    1.4146 C.3     1  LIG1       -0.0596
     16 C          -3.3810   -2.2172    1.1554 C.2     1  LIG1        0.2161
     17 C          -1.8791   -1.0570   -0.5391 C.3     1  LIG1        0.0400
     18 C          -0.9140    0.1100   -0.6586 C.ar    1  LIG1       -0.0216
     19 C           0.4887   -0.0048   -0.8332 C.ar    1  LIG1       -0.0113
     20 C           1.1866   -1.2835   -1.1325 C.ar    1  LIG1        0.0090
     21 C          -1.6544   -0.7197    1.9734 C.3     1  LIG1        0.0035
     22 C          -1.4969    1.3918   -0.5071 C.ar    1  LIG1       -0.0442
     23 C           1.9850   -1.5304   -2.2762 C.ar    1  LIG1        0.1162
     24 C           1.2478    1.1763   -0.6955 C.ar    1  LIG1       -0.0529
     25 C          -0.7352    2.5612   -0.4631 C.ar    1  LIG1        0.0372
     26 C           0.6513    2.4363   -0.5314 C.ar    1  LIG1       -0.0489
     27 C           1.0729   -2.3504   -0.2124 C.ar    1  LIG1       -0.0521
     28 C           2.5606   -2.8023   -2.4944 C.ar    1  LIG1       -0.0345
     29 C           1.6536   -3.6041   -0.4314 C.ar    1  LIG1       -0.0611
     30 C          -1.4148    3.8441   -0.3173 C.ar    1  LIG1        0.2271
     31 C           2.3949   -3.8330   -1.5781 C.ar    1  LIG1       -0.0599
     32 C           4.8258    0.1687   -2.9337 C.ar    1  LIG1        0.1837
     33 C           5.9922    0.8137   -3.4275 C.ar    1  LIG1        0.0342
     34 C           7.0160   -0.0314   -3.0476 C.ar    1  LIG1        0.1390
     35 C           6.1182    2.0565   -4.2199 C.3     1  LIG1       -0.0330
     36 C          -1.5740    5.9915   -0.4163 C.ar    1  LIG1        0.1125
     37 C          -2.7792    5.4480   -0.0535 C.ar    1  LIG1        0.0663
     38 C           8.4789   -0.0331   -3.2452 C.3     1  LIG1       -0.0034
     39 H           3.3596    1.6108   -3.2876 H       1  LIG1        0.1753
     40 H          -3.9816   -2.3803   -0.9296 H       1  LIG1        0.0364
     41 H          -3.8234   -3.8927   -0.0661 H       1  LIG1        0.0364
     42 H          -5.9581   -0.7646   -0.3414 H       1  LIG1        0.0235
     43 H          -5.8519   -1.0036    1.4093 H       1  LIG1        0.0235
     44 H          -7.3394   -1.4130    0.5549 H       1  LIG1        0.0235
     45 H          -6.1455   -2.7926   -1.9081 H       1  LIG1        0.0235
     46 H          -7.4838   -3.4256   -0.9428 H       1  LIG1        0.0235
     47 H          -6.0602   -4.4328   -1.2433 H       1  LIG1        0.0235
     48 H          -5.8846   -3.3455    2.3870 H       1  LIG1        0.0235
     49 H          -5.7145   -4.7589    1.3320 H       1  LIG1        0.0235
     50 H          -7.2503   -3.8878    1.4315 H       1  LIG1        0.0235
     51 H          -2.7678   -0.7997   -1.1266 H       1  LIG1        0.0514
     52 H          -1.4868   -1.9738   -0.9895 H       1  LIG1        0.0514
     53 H          -1.8914   -1.1975    2.9280 H       1  LIG1        0.0429
     54 H          -1.9963    0.3175    2.0286 H       1  LIG1        0.0429
     55 H          -0.5700   -0.7504    1.8607 H       1  LIG1        0.0429
     56 H          -2.5806    1.4704   -0.3961 H       1  LIG1        0.0628
     57 H           2.3346    1.1268   -0.7207 H       1  LIG1        0.0624
     58 H           1.2865    3.3161   -0.4583 H       1  LIG1        0.0625
     59 H           0.5094   -2.2246    0.7080 H       1  LIG1        0.0624
     60 H           3.1652   -2.9938   -3.3809 H       1  LIG1        0.0637
     61 H           1.5225   -4.3987    0.2992 H       1  LIG1        0.0618
     62 H           2.8532   -4.8017   -1.7574 H       1  LIG1        0.0618
     63 H           5.1674    2.5911   -4.2968 H       1  LIG1        0.0280
     64 H           6.4561    1.8231   -5.2351 H       1  LIG1        0.0280
     65 H           6.8489    2.7329   -3.7642 H       1  LIG1        0.0280
     66 H          -1.2053    6.9910   -0.5897 H       1  LIG1        0.1046
     67 H          -3.7076    5.9577    0.1628 H       1  LIG1        0.0862
     68 H           8.9676   -0.7753   -2.6060 H       1  LIG1        0.0309
     69 H           8.9035    0.9468   -3.0079 H       1  LIG1        0.0309
     70 H           8.7202   -0.2702   -4.2859 H       1  LIG1        0.0309
@<TRIPOS>BOND
     1     1     3    2
     2     1     4    2
     3     1     8    1
     4     1    23    1
     5     2    16    2
     6     5    30   ar
     7     5    36   ar
     8     6    10   ar
     9     6    34   ar
    10     7    16   am
    11     7    17    1
    12     7    21    1
    13     8    32    1
    14     9    30   ar
    15     9    37   ar
    16    10    32   ar
    17    11    12    1
    18    11    13    1
    19    11    14    1
    20    11    15    1
    21    12    16    1
    22    17    18    1
    23    18    19   ar
    24    18    22   ar
    25    19    20    1
    26    19    24   ar
    27    20    23   ar
    28    20    27   ar
    29    22    25   ar
    30    23    28   ar
    31    24    26   ar
    32    25    26   ar
    33    25    30    1
    34    27    29   ar
    35    28    31   ar
    36    29    31   ar
    37    32    33   ar
    38    33    34   ar
    39    33    35    1
    40    34    38    1
    41    36    37   ar
    42     8    39    1
    43    12    40    1
    44    12    41    1
    45    13    42    1
    46    13    43    1
    47    13    44    1
    48    14    45    1
    49    14    46    1
    50    14    47    1
    51    15    48    1
    52    15    49    1
    53    15    50    1
    54    17    51    1
    55    17    52    1
    56    21    53    1
    57    21    54    1
    58    21    55    1
    59    22    56    1
    60    24    57    1
    61    26    58    1
    62    27    59    1
    63    28    60    1
    64    29    61    1
    65    31    62    1
    66    35    63    1
    67    35    64    1
    68    35    65    1
    69    36    66    1
    70    37    67    1
    71    38    68    1
    72    38    69    1
    73    38    70    1
@<TRIPOS>MOLECULE
156690
 70 73 0 0 0
SMALL
GASTEIGER

@<TRIPOS>ATOM
      1 S           2.4407   -0.0631   -3.3495 S.O2    1  LIG1        0.0741
      2 O          -3.2936   -0.5255   -3.3230 O.2     1  LIG1       -0.2756
      3 O           1.1447    0.2987   -3.8855 O.2     1  LIG1       -0.1499
      4 O           3.3147    0.9060   -2.7261 O.2     1  LIG1       -0.1499
      5 O          -2.9633    3.6756   -0.3618 O.2     1  LIG1       -0.4436
      6 O           6.4479    0.4816   -5.2291 O.2     1  LIG1       -0.3578
      7 N          -3.1811   -1.1617   -1.1331 N.am    1  LIG1       -0.3002
      8 N           3.2178   -0.7872   -4.6838 N.pl3   1  LIG1       -0.1965
      9 N          -1.0947    4.8873    0.0087 N.ar    1  LIG1       -0.2175
     10 N           5.5398   -0.2478   -4.4849 N.ar    1  LIG1       -0.0614
     11 C          -5.9892    0.5985   -3.0892 C.3     1  LIG1       -0.0295
     12 C          -5.3636   -0.4174   -2.0950 C.3     1  LIG1        0.0290
     13 C          -7.5035    0.6699   -2.7985 C.3     1  LIG1       -0.0596
     14 C          -5.3850    1.9962   -2.8638 C.3     1  LIG1       -0.0596
     15 C          -5.8179    0.1877   -4.5615 C.3     1  LIG1       -0.0596
     16 C          -3.8682   -0.6903   -2.2477 C.2     1  LIG1        0.2161
     17 C          -1.7186   -1.2673   -1.2320 C.3     1  LIG1        0.0400
     18 C          -0.9265   -0.0093   -0.8838 C.ar    1  LIG1       -0.0216
     19 C           0.4949   -0.0349   -0.8267 C.ar    1  LIG1       -0.0113
     20 C           1.2955   -1.2536   -1.1022 C.ar    1  LIG1        0.0090
     21 C          -3.7781   -1.4223    0.1717 C.3     1  LIG1        0.0035
     22 C          -1.5909    1.2226   -0.6763 C.ar    1  LIG1       -0.0442
     23 C           2.1913   -1.3983   -2.1904 C.ar    1  LIG1        0.1162
     24 C           1.1694    1.1544   -0.4888 C.ar    1  LIG1       -0.0529
     25 C          -0.9022    2.4127   -0.4008 C.ar    1  LIG1        0.0372
     26 C           0.4870    2.3584   -0.2962 C.ar    1  LIG1       -0.0489
     27 C           1.1893   -2.3400   -0.2088 C.ar    1  LIG1       -0.0521
     28 C           2.9005   -2.5972   -2.3849 C.ar    1  LIG1       -0.0345
     29 C           1.8794   -3.5363   -0.4167 C.ar    1  LIG1       -0.0611
     30 C          -1.5948    3.6894   -0.2386 C.ar    1  LIG1        0.2271
     31 C           2.7293   -3.6667   -1.5077 C.ar    1  LIG1       -0.0599
     32 C           4.3822   -0.1678   -5.1446 C.ar    1  LIG1        0.1837
     33 C           4.5234    0.5411   -6.3669 C.ar    1  LIG1        0.0342
     34 C           5.8385    0.9581   -6.3458 C.ar    1  LIG1        0.1390
     35 C           3.5167    0.8281   -7.4122 C.3     1  LIG1       -0.0330
     36 C          -3.3284    4.9758   -0.1912 C.ar    1  LIG1        0.1125
     37 C          -2.1921    5.7091    0.0317 C.ar    1  LIG1        0.0663
     38 C           6.6645    1.7835   -7.2488 C.3     1  LIG1       -0.0034
     39 H           2.4930   -0.8704   -5.3950 H       1  LIG1        0.1753
     40 H          -5.8707   -1.3865   -2.1848 H       1  LIG1        0.0364
     41 H          -5.5520   -0.0334   -1.0860 H       1  LIG1        0.0364
     42 H          -7.6978    0.9575   -1.7593 H       1  LIG1        0.0235
     43 H          -7.9834   -0.2999   -2.9732 H       1  LIG1        0.0235
     44 H          -7.9976    1.4057   -3.4434 H       1  LIG1        0.0235
     45 H          -5.5370    2.3293   -1.8305 H       1  LIG1        0.0235
     46 H          -5.8497    2.7385   -3.5223 H       1  LIG1        0.0235
     47 H          -4.3080    2.0088   -3.0607 H       1  LIG1        0.0235
     48 H          -6.0901   -0.8622   -4.7137 H       1  LIG1        0.0235
     49 H          -4.7942    0.3307   -4.9186 H       1  LIG1        0.0235
     50 H          -6.4552    0.7950   -5.2149 H       1  LIG1        0.0235
     51 H          -1.4518   -1.5685   -2.2516 H       1  LIG1        0.0514
     52 H          -1.4308   -2.0841   -0.5640 H       1  LIG1        0.0514
     53 H          -4.8505   -1.6127    0.0993 H       1  LIG1        0.0429
     54 H          -3.6062   -0.5608    0.8226 H       1  LIG1        0.0429
     55 H          -3.3164   -2.3108    0.6129 H       1  LIG1        0.0429
     56 H          -2.6738    1.2691   -0.7582 H       1  LIG1        0.0628
     57 H           2.2559    1.1656   -0.4017 H       1  LIG1        0.0624
     58 H           1.0565    3.2623   -0.0853 H       1  LIG1        0.0625
     59 H           0.5534   -2.2575    0.6721 H       1  LIG1        0.0624
     60 H           3.6008   -2.7150   -3.2082 H       1  LIG1        0.0637
     61 H           1.7578   -4.3613    0.2810 H       1  LIG1        0.0618
     62 H           3.2733   -4.5948   -1.6674 H       1  LIG1        0.0618
     63 H           2.5370    0.4100   -7.1655 H       1  LIG1        0.0280
     64 H           3.8316    0.3994   -8.3694 H       1  LIG1        0.0280
     65 H           3.3961    1.9083   -7.5423 H       1  LIG1        0.0280
     66 H          -4.3830    5.1957   -0.2587 H       1  LIG1        0.1046
     67 H          -2.1035    6.7724    0.2045 H       1  LIG1        0.0862
     68 H           7.6567    1.9719   -6.8273 H       1  LIG1        0.0309
     69 H           6.1845    2.7517   -7.4247 H       1  LIG1        0.0309
     70 H           6.7920    1.2843   -8.2141 H       1  LIG1        0.0309
@<TRIPOS>BOND
     1     1     3    2
     2     1     4    2
     3     1     8    1
     4     1    23    1
     5     2    16    2
     6     5    30   ar
     7     5    36   ar
     8     6    10   ar
     9     6    34   ar
    10     7    16   am
    11     7    17    1
    12     7    21    1
    13     8    32    1
    14     9    30   ar
    15     9    37   ar
    16    10    32   ar
    17    11    12    1
    18    11    13    1
    19    11    14    1
    20    11    15    1
    21    12    16    1
    22    17    18    1
    23    18    19   ar
    24    18    22   ar
    25    19    20    1
    26    19    24   ar
    27    20    23   ar
    28    20    27   ar
    29    22    25   ar
    30    23    28   ar
    31    24    26   ar
    32    25    26   ar
    33    25    30    1
    34    27    29   ar
    35    28    31   ar
    36    29    31   ar
    37    32    33   ar
    38    33    34   ar
    39    33    35    1
    40    34    38    1
    41    36    37   ar
    42     8    39    1
    43    12    40    1
    44    12    41    1
    45    13    42    1
    46    13    43    1
    47    13    44    1
    48    14    45    1
    49    14    46    1
    50    14    47    1
    51    15    48    1
    52    15    49    1
    53    15    50    1
    54    17    51    1
    55    17    52    1
    56    21    53    1
    57    21    54    1
    58    21    55    1
    59    22    56    1
    60    24    57    1
    61    26    58    1
    62    27    59    1
    63    28    60    1
    64    29    61    1
    65    31    62    1
    66    35    63    1
    67    35    64    1
    68    35    65    1
    69    36    66    1
    70    37    67    1
    71    38    68    1
    72    38    69    1
    73    38    70    1
@<TRIPOS>MOLECULE
156690
 70 73 0 0 0
SMALL
GASTEIGER

@<TRIPOS>ATOM
      1 S           3.3749   -0.4234   -0.2250 S.O2    1  LIG1        0.0741
      2 O          -2.1366   -1.0308   -3.4310 O.2     1  LIG1       -0.2756
      3 O           2.4196    0.3210    0.5690 O.2     1  LIG1       -0.1499
      4 O           4.4306   -1.1470    0.4581 O.2     1  LIG1       -0.1499
      5 O          -2.8076    3.6798   -0.2863 O.2     1  LIG1       -0.4436
      6 O           6.4728   -0.7406   -3.4187 O.2     1  LIG1       -0.3578
      7 N          -3.0426   -1.2223   -1.3337 N.am    1  LIG1       -0.3002
      8 N           4.0991    0.6839   -1.2589 N.pl3   1  LIG1       -0.1965
      9 N          -1.0166    4.9494   -0.8156 N.ar    1  LIG1       -0.2175
     10 N           5.2917   -0.7991   -2.7115 N.ar    1  LIG1       -0.0614
     11 C          -4.5600   -1.2534   -4.9193 C.3     1  LIG1       -0.0295
     12 C          -4.5153   -1.2791   -3.3623 C.3     1  LIG1        0.0290
     13 C          -6.0350   -1.3871   -5.3528 C.3     1  LIG1       -0.0596
     14 C          -4.0255    0.0751   -5.4866 C.3     1  LIG1       -0.0596
     15 C          -3.7839   -2.4353   -5.5309 C.3     1  LIG1       -0.0596
     16 C          -3.1320   -1.1705   -2.7252 C.2     1  LIG1        0.2161
     17 C          -1.6994   -1.2479   -0.7103 C.3     1  LIG1        0.0400
     18 C          -0.8690   -0.0142   -1.0282 C.ar    1  LIG1       -0.0216
     19 C           0.4212   -0.0444   -1.6245 C.ar    1  LIG1       -0.0113
     20 C           1.2173   -1.2848   -1.8450 C.ar    1  LIG1        0.0090
     21 C          -4.1649   -1.5188   -0.4570 C.3     1  LIG1        0.0035
     22 C          -1.4771    1.2312   -0.7320 C.ar    1  LIG1       -0.0442
     23 C           2.4887   -1.5534   -1.2857 C.ar    1  LIG1        0.1162
     24 C           0.9571    1.1911   -2.0423 C.ar    1  LIG1       -0.0529
     25 C          -0.8858    2.4503   -1.0744 C.ar    1  LIG1        0.0372
     26 C           0.3282    2.4124   -1.7595 C.ar    1  LIG1       -0.0489
     27 C           0.6999   -2.2875   -2.6938 C.ar    1  LIG1       -0.0521
     28 C           3.1278   -2.7968   -1.5001 C.ar    1  LIG1       -0.0345
     29 C           1.3351   -3.5159   -2.9055 C.ar    1  LIG1       -0.0611
     30 C          -1.5129    3.7267   -0.7453 C.ar    1  LIG1        0.2271
     31 C           2.5499   -3.7759   -2.2984 C.ar    1  LIG1       -0.0599
     32 C           5.1886    0.3579   -2.0557 C.ar    1  LIG1        0.1837
     33 C           6.2962    1.2052   -2.3352 C.ar    1  LIG1        0.0342
     34 C           7.0769    0.4520   -3.1892 C.ar    1  LIG1        0.1390
     35 C           6.6092    2.5503   -1.8041 C.3     1  LIG1       -0.0330
     36 C          -3.1291    4.9812   -0.0529 C.ar    1  LIG1        0.1125
     37 C          -2.0374    5.7488   -0.3664 C.ar    1  LIG1        0.0663
     38 C           8.3812    0.6604   -3.8481 C.3     1  LIG1       -0.0034
     39 H           3.9536    1.6399   -0.9522 H       1  LIG1        0.1753
     40 H          -4.9643   -2.2192   -3.0185 H       1  LIG1        0.0364
     41 H          -5.1193   -0.4470   -2.9796 H       1  LIG1        0.0364
     42 H          -6.6392   -0.5606   -4.9624 H       1  LIG1        0.0235
     43 H          -6.4715   -2.3243   -4.9896 H       1  LIG1        0.0235
     44 H          -6.1295   -1.3796   -6.4454 H       1  LIG1        0.0235
     45 H          -4.5366    0.9315   -5.0330 H       1  LIG1        0.0235
     46 H          -4.1832    0.1305   -6.5703 H       1  LIG1        0.0235
     47 H          -2.9520    0.2014   -5.3204 H       1  LIG1        0.0235
     48 H          -4.1329   -3.3896   -5.1216 H       1  LIG1        0.0235
     49 H          -2.7074   -2.3695   -5.3494 H       1  LIG1        0.0235
     50 H          -3.9175   -2.4719   -6.6185 H       1  LIG1        0.0235
     51 H          -1.2258   -2.1847   -1.0065 H       1  LIG1        0.0514
     52 H          -1.8173   -1.2940    0.3803 H       1  LIG1        0.0514
     53 H          -5.1302   -1.3718   -0.9425 H       1  LIG1        0.0429
     54 H          -4.1201   -0.8585    0.4139 H       1  LIG1        0.0429
     55 H          -4.0870   -2.5604   -0.1324 H       1  LIG1        0.0429
     56 H          -2.4472    1.2339   -0.2361 H       1  LIG1        0.0628
     57 H           1.8884    1.2124   -2.6045 H       1  LIG1        0.0624
     58 H           0.7988    3.3404   -2.0800 H       1  LIG1        0.0625
     59 H          -0.2363   -2.1269   -3.2169 H       1  LIG1        0.0624
     60 H           4.1023   -3.0027   -1.0589 H       1  LIG1        0.0637
     61 H           0.8730   -4.2594   -3.5505 H       1  LIG1        0.0618
     62 H           3.0581   -4.7224   -2.4597 H       1  LIG1        0.0618
     63 H           5.7635    2.9841   -1.2637 H       1  LIG1        0.0280
     64 H           6.8754    3.2351   -2.6156 H       1  LIG1        0.0280
     65 H           7.4576    2.4935   -1.1136 H       1  LIG1        0.0280
     66 H          -4.1236    5.1761    0.3192 H       1  LIG1        0.1046
     67 H          -1.9324    6.8221   -0.2952 H       1  LIG1        0.0862
     68 H           8.5439   -0.0657   -4.6511 H       1  LIG1        0.0309
     69 H           9.1931    0.5518   -3.1224 H       1  LIG1        0.0309
     70 H           8.4414    1.6625   -4.2838 H       1  LIG1        0.0309
@<TRIPOS>BOND
     1     1     3    2
     2     1     4    2
     3     1     8    1
     4     1    23    1
     5     2    16    2
     6     5    30   ar
     7     5    36   ar
     8     6    10   ar
     9     6    34   ar
    10     7    16   am
    11     7    17    1
    12     7    21    1
    13     8    32    1
    14     9    30   ar
    15     9    37   ar
    16    10    32   ar
    17    11    12    1
    18    11    13    1
    19    11    14    1
    20    11    15    1
    21    12    16    1
    22    17    18    1
    23    18    19   ar
    24    18    22   ar
    25    19    20    1
    26    19    24   ar
    27    20    23   ar
    28    20    27   ar
    29    22    25   ar
    30    23    28   ar
    31    24    26   ar
    32    25    26   ar
    33    25    30    1
    34    27    29   ar
    35    28    31   ar
    36    29    31   ar
    37    32    33   ar
    38    33    34   ar
    39    33    35    1
    40    34    38    1
    41    36    37   ar
    42     8    39    1
    43    12    40    1
    44    12    41    1
    45    13    42    1
    46    13    43    1
    47    13    44    1
    48    14    45    1
    49    14    46    1
    50    14    47    1
    51    15    48    1
    52    15    49    1
    53    15    50    1
    54    17    51    1
    55    17    52    1
    56    21    53    1
    57    21    54    1
    58    21    55    1
    59    22    56    1
    60    24    57    1
    61    26    58    1
    62    27    59    1
    63    28    60    1
    64    29    61    1
    65    31    62    1
    66    35    63    1
    67    35    64    1
    68    35    65    1
    69    36    66    1
    70    37    67    1
    71    38    68    1
    72    38    69    1
    73    38    70    1
@<TRIPOS>MOLECULE
156690
 70 73 0 0 0
SMALL
GASTEIGER

@<TRIPOS>ATOM
      1 S           3.3444   -0.2968   -0.5587 S.O2    1  LIG1        0.0741
      2 O          -3.9068   -1.4108   -1.7997 O.2     1  LIG1       -0.2756
      3 O           2.5819    0.6869    0.1703 O.2     1  LIG1       -0.1499
      4 O           4.4118   -1.0431    0.0799 O.2     1  LIG1       -0.1499
      5 O          -2.9802    3.8387   -0.2642 O.2     1  LIG1       -0.4436
      6 O           6.3191    2.9072   -1.7451 O.2     1  LIG1       -0.3578
      7 N          -3.0280   -0.9586    0.2712 N.am    1  LIG1       -0.3002
      8 N           3.9675    0.3207   -2.0081 N.pl3   1  LIG1       -0.1965
      9 N          -1.1930    5.0874   -0.8514 N.ar    1  LIG1       -0.2175
     10 N           5.0825    2.3632   -1.4490 N.ar    1  LIG1       -0.0614
     11 C          -6.7133   -1.1248   -0.9782 C.3     1  LIG1       -0.0295
     12 C          -5.4939   -0.8698   -0.0531 C.3     1  LIG1        0.0290
     13 C          -6.6940   -0.2267   -2.2267 C.3     1  LIG1       -0.0596
     14 C          -6.7957   -2.6023   -1.3947 C.3     1  LIG1       -0.0596
     15 C          -7.9891   -0.7833   -0.1753 C.3     1  LIG1       -0.0596
     16 C          -4.0931   -1.1152   -0.6199 C.2     1  LIG1        0.2161
     17 C          -1.6610   -1.1374   -0.2361 C.3     1  LIG1        0.0400
     18 C          -1.0189    0.1235   -0.8149 C.ar    1  LIG1       -0.0216
     19 C           0.2058    0.0762   -1.5423 C.ar    1  LIG1       -0.0113
     20 C           0.9433   -1.1918   -1.7753 C.ar    1  LIG1        0.0090
     21 C          -3.1653   -0.7485    1.7061 C.3     1  LIG1        0.0035
     22 C          -1.6276    1.3802   -0.5866 C.ar    1  LIG1       -0.0442
     23 C           2.2311   -1.5095   -1.2796 C.ar    1  LIG1        0.1162
     24 C           0.7054    1.2844   -2.0682 C.ar    1  LIG1       -0.0529
     25 C          -1.0783    2.5805   -1.0522 C.ar    1  LIG1        0.0372
     26 C           0.0921    2.5155   -1.8048 C.ar    1  LIG1       -0.0489
     27 C           0.3091   -2.1860   -2.5537 C.ar    1  LIG1       -0.0521
     28 C           2.7762   -2.8002   -1.4577 C.ar    1  LIG1       -0.0345
     29 C           0.8628   -3.4559   -2.7441 C.ar    1  LIG1       -0.0611
     30 C          -1.6924    3.8692   -0.7447 C.ar    1  LIG1        0.2271
     31 C           2.0877   -3.7717   -2.1762 C.ar    1  LIG1       -0.0599
     32 C           5.0915    1.1373   -1.9699 C.ar    1  LIG1        0.1837
     33 C           6.3338    0.8382   -2.5920 C.ar    1  LIG1        0.0342
     34 C           7.0583    2.0009   -2.4364 C.ar    1  LIG1        0.1390
     35 C           6.7838   -0.4132   -3.2411 C.3     1  LIG1       -0.0330
     36 C          -3.2893    5.1468   -0.0501 C.ar    1  LIG1        0.1125
     37 C          -2.1975    5.9010   -0.3929 C.ar    1  LIG1        0.0663
     38 C           8.4084    2.4268   -2.8531 C.3     1  LIG1       -0.0034
     39 H           4.0012   -0.4087   -2.7138 H       1  LIG1        0.1753
     40 H          -5.6042   -1.5053    0.8348 H       1  LIG1        0.0364
     41 H          -5.5214    0.1783    0.2738 H       1  LIG1        0.0364
     42 H          -5.8817   -0.4839   -2.9119 H       1  LIG1        0.0235
     43 H          -6.5832    0.8282   -1.9532 H       1  LIG1        0.0235
     44 H          -7.6282   -0.3244   -2.7928 H       1  LIG1        0.0235
     45 H          -5.9525   -2.8993   -2.0251 H       1  LIG1        0.0235
     46 H          -7.7112   -2.7995   -1.9645 H       1  LIG1        0.0235
     47 H          -6.8053   -3.2589   -0.5172 H       1  LIG1        0.0235
     48 H          -7.9955    0.2699    0.1282 H       1  LIG1        0.0235
     49 H          -8.0625   -1.3930    0.7322 H       1  LIG1        0.0235
     50 H          -8.8932   -0.9624   -0.7686 H       1  LIG1        0.0235
     51 H          -1.7152   -1.9128   -1.0022 H       1  LIG1        0.0514
     52 H          -1.0346   -1.5206    0.5783 H       1  LIG1        0.0514
     53 H          -4.1132   -0.2759    1.9660 H       1  LIG1        0.0429
     54 H          -2.3539   -0.1086    2.0641 H       1  LIG1        0.0429
     55 H          -3.1043   -1.7230    2.1990 H       1  LIG1        0.0429
     56 H          -2.5499    1.4331   -0.0125 H       1  LIG1        0.0628
     57 H           1.6125    1.2970   -2.6665 H       1  LIG1        0.0624
     58 H           0.5506    3.4291   -2.1807 H       1  LIG1        0.0625
     59 H          -0.6587   -1.9762   -3.0140 H       1  LIG1        0.0624
     60 H           3.7560   -3.0530   -1.0549 H       1  LIG1        0.0637
     61 H           0.3229   -4.1979   -3.3284 H       1  LIG1        0.0618
     62 H           2.5162   -4.7616   -2.3093 H       1  LIG1        0.0618
     63 H           6.0130   -1.1892   -3.2158 H       1  LIG1        0.0280
     64 H           7.6649   -0.8093   -2.7243 H       1  LIG1        0.0280
     65 H           7.0503   -0.2341   -4.2874 H       1  LIG1        0.0280
     66 H          -4.2765    5.3544    0.3333 H       1  LIG1        0.1046
     67 H          -2.0811    6.9739   -0.3382 H       1  LIG1        0.0862
     68 H           8.5258    3.5124   -2.7817 H       1  LIG1        0.0309
     69 H           8.5972    2.1381   -3.8924 H       1  LIG1        0.0309
     70 H           9.1686    1.9553   -2.2238 H       1  LIG1        0.0309
@<TRIPOS>BOND
     1     1     3    2
     2     1     4    2
     3     1     8    1
     4     1    23    1
     5     2    16    2
     6     5    30   ar
     7     5    36   ar
     8     6    10   ar
     9     6    34   ar
    10     7    16   am
    11     7    17    1
    12     7    21    1
    13     8    32    1
    14     9    30   ar
    15     9    37   ar
    16    10    32   ar
    17    11    12    1
    18    11    13    1
    19    11    14    1
    20    11    15    1
    21    12    16    1
    22    17    18    1
    23    18    19   ar
    24    18    22   ar
    25    19    20    1
    26    19    24   ar
    27    20    23   ar
    28    20    27   ar
    29    22    25   ar
    30    23    28   ar
    31    24    26   ar
    32    25    26   ar
    33    25    30    1
    34    27    29   ar
    35    28    31   ar
    36    29    31   ar
    37    32    33   ar
    38    33    34   ar
    39    33    35    1
    40    34    38    1
    41    36    37   ar
    42     8    39    1
    43    12    40    1
    44    12    41    1
    45    13    42    1
    46    13    43    1
    47    13    44    1
    48    14    45    1
    49    14    46    1
    50    14    47    1
    51    15    48    1
    52    15    49    1
    53    15    50    1
    54    17    51    1
    55    17    52    1
    56    21    53    1
    57    21    54    1
    58    21    55    1
    59    22    56    1
    60    24    57    1
    61    26    58    1
    62    27    59    1
    63    28    60    1
    64    29    61    1
    65    31    62    1
    66    35    63    1
    67    35    64    1
    68    35    65    1
    69    36    66    1
    70    37    67    1
    71    38    68    1
    72    38    69    1
    73    38    70    1
@<TRIPOS>MOLECULE
156690
 70 73 0 0 0
SMALL
GASTEIGER

@<TRIPOS>ATOM
      1 S           3.5020   -0.1100   -0.6548 S.O2    1  LIG1        0.0741
      2 O          -2.1889   -0.6742   -3.3167 O.2     1  LIG1       -0.2756
      3 O           2.7344    0.8897    0.0449 O.2     1  LIG1       -0.1499
      4 O           4.6094   -0.7695   -0.0023 O.2     1  LIG1       -0.1499
      5 O          -0.9198    4.9735   -0.7290 O.2     1  LIG1       -0.4436
      6 O           7.0785    2.0751   -2.8065 O.2     1  LIG1       -0.3578
      7 N          -3.0601   -1.1947   -1.2482 N.am    1  LIG1       -0.3002
      8 N           4.0616    0.4763   -2.1450 N.pl3   1  LIG1       -0.1965
      9 N          -2.8458    3.9961   -0.0669 N.ar    1  LIG1       -0.2175
     10 N           6.2475    0.9752   -2.8104 N.ar    1  LIG1       -0.0614
     11 C          -4.7135   -0.3643   -4.6584 C.3     1  LIG1       -0.0295
     12 C          -4.5571   -1.0051   -3.2480 C.3     1  LIG1        0.0290
     13 C          -6.1799   -0.5554   -5.1009 C.3     1  LIG1       -0.0596
     14 C          -4.4215    1.1464   -4.6063 C.3     1  LIG1       -0.0596
     15 C          -3.8203   -1.0315   -5.7209 C.3     1  LIG1       -0.0596
     16 C          -3.1660   -0.9383   -2.6198 C.2     1  LIG1        0.2161
     17 C          -1.7361   -1.1251   -0.5879 C.3     1  LIG1        0.0400
     18 C          -0.9329    0.1168   -0.9334 C.ar    1  LIG1       -0.0216
     19 C           0.3233    0.0990   -1.6014 C.ar    1  LIG1       -0.0113
     20 C           1.1212   -1.1438   -1.8102 C.ar    1  LIG1        0.0090
     21 C          -4.0838   -1.9099   -0.5001 C.3     1  LIG1        0.0035
     22 C          -1.5488    1.3533   -0.6191 C.ar    1  LIG1       -0.0442
     23 C           2.4164   -1.3932   -1.2971 C.ar    1  LIG1        0.1162
     24 C           0.7958    1.3342   -2.0833 C.ar    1  LIG1       -0.0529
     25 C          -0.9956    2.5767   -1.0008 C.ar    1  LIG1        0.0372
     26 C           0.1648    2.5502   -1.7736 C.ar    1  LIG1       -0.0489
     27 C           0.5544   -2.1972   -2.5621 C.ar    1  LIG1       -0.0521
     28 C           3.0183   -2.6677   -1.4155 C.ar    1  LIG1       -0.0345
     29 C           1.1566   -3.4523   -2.6937 C.ar    1  LIG1       -0.0611
     30 C          -1.6494    3.8177   -0.6005 C.ar    1  LIG1        0.2271
     31 C           2.3795   -3.6979   -2.0946 C.ar    1  LIG1       -0.0599
     32 C           5.1306    1.3612   -2.1898 C.ar    1  LIG1        0.1837
     33 C           5.1715    2.7302   -1.8321 C.ar    1  LIG1        0.0342
     34 C           6.4313    3.1248   -2.2394 C.ar    1  LIG1        0.1390
     35 C           4.1222    3.5919   -1.2481 C.3     1  LIG1       -0.0330
     36 C          -1.7377    5.9413   -0.2294 C.ar    1  LIG1        0.1125
     37 C          -2.9093    5.3460    0.1628 C.ar    1  LIG1        0.0663
     38 C           7.1568    4.4089   -2.2330 C.3     1  LIG1       -0.0034
     39 H           4.2782   -0.3227   -2.7429 H       1  LIG1        0.1753
     40 H          -4.8337   -2.0655   -3.3039 H       1  LIG1        0.0364
     41 H          -5.2575   -0.5001   -2.5714 H       1  LIG1        0.0364
     42 H          -6.8740   -0.0987   -4.3870 H       1  LIG1        0.0235
     43 H          -6.4312   -1.6191   -5.1812 H       1  LIG1        0.0235
     44 H          -6.3623   -0.0969   -6.0798 H       1  LIG1        0.0235
     45 H          -5.0623    1.6464   -3.8711 H       1  LIG1        0.0235
     46 H          -4.6047    1.6168   -5.5792 H       1  LIG1        0.0235
     47 H          -3.3815    1.3552   -4.3366 H       1  LIG1        0.0235
     48 H          -3.9257   -2.1215   -5.6985 H       1  LIG1        0.0235
     49 H          -2.7613   -0.7914   -5.5927 H       1  LIG1        0.0235
     50 H          -4.0904   -0.6924   -6.7281 H       1  LIG1        0.0235
     51 H          -1.2197   -2.0639   -0.7884 H       1  LIG1        0.0514
     52 H          -1.9025   -1.1031    0.4978 H       1  LIG1        0.0514
     53 H          -5.0496   -1.9368   -1.0045 H       1  LIG1        0.0429
     54 H          -4.2133   -1.4297    0.4740 H       1  LIG1        0.0429
     55 H          -3.7466   -2.9414   -0.3567 H       1  LIG1        0.0429
     56 H          -2.4950    1.3517   -0.0765 H       1  LIG1        0.0628
     57 H           1.6937    1.3764   -2.6932 H       1  LIG1        0.0624
     58 H           0.6071    3.4758   -2.1334 H       1  LIG1        0.0625
     59 H          -0.4030   -2.0546   -3.0570 H       1  LIG1        0.0624
     60 H           4.0078   -2.8612   -1.0022 H       1  LIG1        0.0637
     61 H           0.6557   -4.2332   -3.2611 H       1  LIG1        0.0618
     62 H           2.8518   -4.6726   -2.1868 H       1  LIG1        0.0618
     63 H           3.1582    3.0860   -1.1923 H       1  LIG1        0.0280
     64 H           3.9797    4.4863   -1.8649 H       1  LIG1        0.0280
     65 H           4.4041    3.9121   -0.2408 H       1  LIG1        0.0280
     66 H          -1.3499    6.9483   -0.2239 H       1  LIG1        0.1046
     67 H          -3.7830    5.8101    0.5994 H       1  LIG1        0.0862
     68 H           8.2118    4.2719   -2.4910 H       1  LIG1        0.0309
     69 H           7.1068    4.8767   -1.2456 H       1  LIG1        0.0309
     70 H           6.7165    5.0950   -2.9636 H       1  LIG1        0.0309
@<TRIPOS>BOND
     1     1     3    2
     2     1     4    2
     3     1     8    1
     4     1    23    1
     5     2    16    2
     6     5    30   ar
     7     5    36   ar
     8     6    10   ar
     9     6    34   ar
    10     7    16   am
    11     7    17    1
    12     7    21    1
    13     8    32    1
    14     9    30   ar
    15     9    37   ar
    16    10    32   ar
    17    11    12    1
    18    11    13    1
    19    11    14    1
    20    11    15    1
    21    12    16    1
    22    17    18    1
    23    18    19   ar
    24    18    22   ar
    25    19    20    1
    26    19    24   ar
    27    20    23   ar
    28    20    27   ar
    29    22    25   ar
    30    23    28   ar
    31    24    26   ar
    32    25    26   ar
    33    25    30    1
    34    27    29   ar
    35    28    31   ar
    36    29    31   ar
    37    32    33   ar
    38    33    34   ar
    39    33    35    1
    40    34    38    1
    41    36    37   ar
    42     8    39    1
    43    12    40    1
    44    12    41    1
    45    13    42    1
    46    13    43    1
    47    13    44    1
    48    14    45    1
    49    14    46    1
    50    14    47    1
    51    15    48    1
    52    15    49    1
    53    15    50    1
    54    17    51    1
    55    17    52    1
    56    21    53    1
    57    21    54    1
    58    21    55    1
    59    22    56    1
    60    24    57    1
    61    26    58    1
    62    27    59    1
    63    28    60    1
    64    29    61    1
    65    31    62    1
    66    35    63    1
    67    35    64    1
    68    35    65    1
    69    36    66    1
    70    37    67    1
    71    38    68    1
    72    38    69    1
    73    38    70    1
@<TRIPOS>MOLECULE
156690
 70 73 0 0 0
SMALL
GASTEIGER

@<TRIPOS>ATOM
      1 S           3.5180   -0.0650   -0.6080 S.O2    1  LIG1        0.0741
      2 O          -2.1138   -1.1120   -3.3942 O.2     1  LIG1       -0.2756
      3 O           2.7097    0.9370    0.0379 O.2     1  LIG1       -0.1499
      4 O           4.6337   -0.6629    0.0950 O.2     1  LIG1       -0.1499
      5 O          -0.8955    4.8959   -0.8509 O.2     1  LIG1       -0.4436
      6 O           7.0840    2.0978   -2.8147 O.2     1  LIG1       -0.3578
      7 N          -3.0659   -1.2076   -1.3088 N.am    1  LIG1       -0.3002
      8 N           4.0901    0.4751   -2.1084 N.pl3   1  LIG1       -0.1965
      9 N          -2.8232    3.9279   -0.1811 N.ar    1  LIG1       -0.2175
     10 N           6.2609    0.9922   -2.8076 N.ar    1  LIG1       -0.0614
     11 C          -4.5292   -1.2212   -4.9182 C.3     1  LIG1       -0.0295
     12 C          -4.5014   -1.2806   -3.3620 C.3     1  LIG1        0.0290
     13 C          -3.9831    0.1188   -5.4455 C.3     1  LIG1       -0.0596
     14 C          -3.7523   -2.3901   -5.5532 C.3     1  LIG1       -0.0596
     15 C          -6.0007   -1.3395   -5.3692 C.3     1  LIG1       -0.0596
     16 C          -3.1268   -1.1941   -2.7030 C.2     1  LIG1        0.2161
     17 C          -1.7400   -1.1922   -0.6494 C.3     1  LIG1        0.0400
     18 C          -0.9195    0.0368   -1.0066 C.ar    1  LIG1       -0.0216
     19 C           0.3555    0.0090   -1.6367 C.ar    1  LIG1       -0.0113
     20 C           1.1930   -1.2229   -1.7642 C.ar    1  LIG1        0.0090
     21 C          -4.2075   -1.4698   -0.4458 C.3     1  LIG1        0.0035
     22 C          -1.5381    1.2803   -0.7239 C.ar    1  LIG1       -0.0442
     23 C           2.4856   -1.4101   -1.2137 C.ar    1  LIG1        0.1162
     24 C           0.8252    1.2351   -2.1456 C.ar    1  LIG1       -0.0529
     25 C          -0.9790    2.4980   -1.1132 C.ar    1  LIG1        0.0372
     26 C           0.1878    2.4573   -1.8722 C.ar    1  LIG1       -0.0489
     27 C           0.6800   -2.3297   -2.4752 C.ar    1  LIG1       -0.0521
     28 C           3.1321   -2.6671   -1.2660 C.ar    1  LIG1       -0.0345
     29 C           1.3257   -3.5696   -2.5403 C.ar    1  LIG1       -0.0611
     30 C          -1.6287    3.7436   -0.7193 C.ar    1  LIG1        0.2271
     31 C           2.5446   -3.7469   -1.9118 C.ar    1  LIG1       -0.0599
     32 C           5.1475    1.3720   -2.1769 C.ar    1  LIG1        0.1837
     33 C           5.1811    2.7429   -1.8263 C.ar    1  LIG1        0.0342
     34 C           6.4352    3.1446   -2.2434 C.ar    1  LIG1        0.1390
     35 C           4.1289    3.5958   -1.2341 C.3     1  LIG1       -0.0330
     36 C          -1.7053    5.8668   -0.3443 C.ar    1  LIG1        0.1125
     37 C          -2.8776    5.2769    0.0531 C.ar    1  LIG1        0.0663
     38 C           7.1551    4.4319   -2.2418 C.3     1  LIG1       -0.0034
     39 H           4.3089   -0.3356   -2.6888 H       1  LIG1        0.1753
     40 H          -4.9593   -2.2247   -3.0414 H       1  LIG1        0.0364
     41 H          -5.1060   -0.4522   -2.9720 H       1  LIG1        0.0364
     42 H          -2.9152    0.2436   -5.2445 H       1  LIG1        0.0235
     43 H          -4.5090    0.9653   -4.9899 H       1  LIG1        0.0235
     44 H          -4.1115    0.1948   -6.5315 H       1  LIG1        0.0235
     45 H          -2.6749   -2.3230   -5.3784 H       1  LIG1        0.0235
     46 H          -3.8918   -2.4091   -6.6404 H       1  LIG1        0.0235
     47 H          -4.0957   -3.3525   -5.1579 H       1  LIG1        0.0235
     48 H          -6.6071   -0.5232   -4.9613 H       1  LIG1        0.0235
     49 H          -6.4416   -2.2856   -5.0365 H       1  LIG1        0.0235
     50 H          -6.0848   -1.3008   -6.4617 H       1  LIG1        0.0235
     51 H          -1.2521   -2.1381   -0.8827 H       1  LIG1        0.0514
     52 H          -1.8866   -1.1875    0.4388 H       1  LIG1        0.0514
     53 H          -5.1626   -1.3796   -0.9636 H       1  LIG1        0.0429
     54 H          -4.1987   -0.7544    0.3820 H       1  LIG1        0.0429
     55 H          -4.1167   -2.4862   -0.0519 H       1  LIG1        0.0429
     56 H          -2.4902    1.2905   -0.1924 H       1  LIG1        0.0628
     57 H           1.7338    1.2687   -2.7403 H       1  LIG1        0.0624
     58 H           0.6363    3.3763   -2.2418 H       1  LIG1        0.0625
     59 H          -0.2654   -2.2464   -3.0014 H       1  LIG1        0.0624
     60 H           4.1209   -2.8079   -0.8296 H       1  LIG1        0.0637
     61 H           0.8617   -4.3897   -3.0835 H       1  LIG1        0.0618
     62 H           3.0511   -4.7076   -1.9538 H       1  LIG1        0.0618
     63 H           3.1498    3.1166   -1.2646 H       1  LIG1        0.0280
     64 H           4.0416    4.5353   -1.7917 H       1  LIG1        0.0280
     65 H           4.3687    3.8357   -0.1942 H       1  LIG1        0.0280
     66 H          -1.3117    6.8719   -0.3381 H       1  LIG1        0.1046
     67 H          -3.7451    5.7437    0.4976 H       1  LIG1        0.0862
     68 H           8.2114    4.2979   -2.4954 H       1  LIG1        0.0309
     69 H           7.0999    4.9044   -1.2569 H       1  LIG1        0.0309
     70 H           6.7142    5.1124   -2.9772 H       1  LIG1        0.0309
@<TRIPOS>BOND
     1     1     3    2
     2     1     4    2
     3     1     8    1
     4     1    23    1
     5     2    16    2
     6     5    30   ar
     7     5    36   ar
     8     6    10   ar
     9     6    34   ar
    10     7    16   am
    11     7    17    1
    12     7    21    1
    13     8    32    1
    14     9    30   ar
    15     9    37   ar
    16    10    32   ar
    17    11    12    1
    18    11    13    1
    19    11    14    1
    20    11    15    1
    21    12    16    1
    22    17    18    1
    23    18    19   ar
    24    18    22   ar
    25    19    20    1
    26    19    24   ar
    27    20    23   ar
    28    20    27   ar
    29    22    25   ar
    30    23    28   ar
    31    24    26   ar
    32    25    26   ar
    33    25    30    1
    34    27    29   ar
    35    28    31   ar
    36    29    31   ar
    37    32    33   ar
    38    33    34   ar
    39    33    35    1
    40    34    38    1
    41    36    37   ar
    42     8    39    1
    43    12    40    1
    44    12    41    1
    45    13    42    1
    46    13    43    1
    47    13    44    1
    48    14    45    1
    49    14    46    1
    50    14    47    1
    51    15    48    1
    52    15    49    1
    53    15    50    1
    54    17    51    1
    55    17    52    1
    56    21    53    1
    57    21    54    1
    58    21    55    1
    59    22    56    1
    60    24    57    1
    61    26    58    1
    62    27    59    1
    63    28    60    1
    64    29    61    1
    65    31    62    1
    66    35    63    1
    67    35    64    1
    68    35    65    1
    69    36    66    1
    70    37    67    1
    71    38    68    1
    72    38    69    1
    73    38    70    1
@<TRIPOS>MOLECULE
156690
 70 73 0 0 0
SMALL
GASTEIGER

@<TRIPOS>ATOM
      1 S           3.4940   -0.1004   -0.6859 S.O2    1  LIG1        0.0741
      2 O          -2.1767   -0.6627   -3.2976 O.2     1  LIG1       -0.2756
      3 O           2.7239    0.9025    0.0072 O.2     1  LIG1       -0.1499
      4 O           4.6095   -0.7538   -0.0282 O.2     1  LIG1       -0.1499
      5 O          -1.1155    4.9896   -1.1468 O.2     1  LIG1       -0.4436
      6 O           7.0695    2.0748   -2.8384 O.2     1  LIG1       -0.3578
      7 N          -3.0483   -1.1969   -1.2304 N.am    1  LIG1       -0.3002
      8 N           4.0505    0.4763   -2.1807 N.pl3   1  LIG1       -0.1965
      9 N          -2.7379    4.0028    0.0763 N.ar    1  LIG1       -0.2175
     10 N           6.2375    0.9754   -2.8458 N.ar    1  LIG1       -0.0614
     11 C          -4.6968   -0.3677   -4.6439 C.3     1  LIG1       -0.0295
     12 C          -4.5418   -1.0106   -3.2344 C.3     1  LIG1        0.0290
     13 C          -6.1600   -0.5655   -5.0929 C.3     1  LIG1       -0.0596
     14 C          -4.4137    1.1449   -4.5882 C.3     1  LIG1       -0.0596
     15 C          -3.7954   -1.0276   -5.7046 C.3     1  LIG1       -0.0596
     16 C          -3.1539   -0.9374   -2.6018 C.2     1  LIG1        0.2161
     17 C          -1.7283   -1.1162   -0.5614 C.3     1  LIG1        0.0400
     18 C          -0.9236    0.1203   -0.9235 C.ar    1  LIG1       -0.0216
     19 C           0.3178    0.0907   -1.6169 C.ar    1  LIG1       -0.0113
     20 C           1.1135   -1.1544   -1.8181 C.ar    1  LIG1        0.0090
     21 C          -4.0688   -1.9240   -0.4890 C.3     1  LIG1        0.0035
     22 C          -1.5346    1.3606   -0.6183 C.ar    1  LIG1       -0.0442
     23 C           2.4144   -1.3937   -1.3143 C.ar    1  LIG1        0.1162
     24 C           0.7759    1.3166   -2.1361 C.ar    1  LIG1       -0.0529
     25 C          -1.0034    2.5769   -1.0524 C.ar    1  LIG1        0.0372
     26 C           0.1400    2.5358   -1.8494 C.ar    1  LIG1       -0.0489
     27 C           0.5397   -2.2182   -2.5489 C.ar    1  LIG1       -0.0521
     28 C           3.0196   -2.6673   -1.4281 C.ar    1  LIG1       -0.0345
     29 C           1.1451   -3.4730   -2.6746 C.ar    1  LIG1       -0.0611
     30 C          -1.6672    3.8223   -0.6791 C.ar    1  LIG1        0.2271
     31 C           2.3775   -3.7067   -2.0901 C.ar    1  LIG1       -0.0599
     32 C           5.1186    1.3625   -2.2296 C.ar    1  LIG1        0.1837
     33 C           5.1576    2.7321   -1.8749 C.ar    1  LIG1        0.0342
     34 C           6.4200    3.1251   -2.2742 C.ar    1  LIG1        0.1390
     35 C           4.1051    3.5935   -1.2967 C.3     1  LIG1       -0.0330
     36 C          -1.9134    5.9649   -0.6332 C.ar    1  LIG1        0.1125
     37 C          -2.8952    5.3644    0.1104 C.ar    1  LIG1        0.0663
     38 C           7.1474    4.4081   -2.2617 C.3     1  LIG1       -0.0034
     39 H           4.2668   -0.3252   -2.7752 H       1  LIG1        0.1753
     40 H          -4.8122   -2.0727   -3.2936 H       1  LIG1        0.0364
     41 H          -5.2473   -0.5112   -2.5584 H       1  LIG1        0.0364
     42 H          -6.8597   -0.1140   -4.3808 H       1  LIG1        0.0235
     43 H          -6.4055   -1.6312   -5.1757 H       1  LIG1        0.0235
     44 H          -6.3413   -0.1070   -6.0718 H       1  LIG1        0.0235
     45 H          -5.0594    1.6397   -3.8541 H       1  LIG1        0.0235
     46 H          -4.5966    1.6159   -5.5609 H       1  LIG1        0.0235
     47 H          -3.3755    1.3593   -4.3151 H       1  LIG1        0.0235
     48 H          -3.8939   -2.1177   -5.6843 H       1  LIG1        0.0235
     49 H          -2.7387   -0.7804   -5.5735 H       1  LIG1        0.0235
     50 H          -4.0649   -0.6885   -6.7129 H       1  LIG1        0.0235
     51 H          -1.2085   -2.0579   -0.7420 H       1  LIG1        0.0514
     52 H          -1.9029   -1.0759    0.5221 H       1  LIG1        0.0514
     53 H          -5.0329   -1.9552   -0.9960 H       1  LIG1        0.0429
     54 H          -4.2047   -1.4501    0.4876 H       1  LIG1        0.0429
     55 H          -3.7241   -2.9536   -0.3503 H       1  LIG1        0.0429
     56 H          -2.4687    1.3669   -0.0555 H       1  LIG1        0.0628
     57 H           1.6625    1.3473   -2.7636 H       1  LIG1        0.0624
     58 H           0.5679    3.4530   -2.2464 H       1  LIG1        0.0625
     59 H          -0.4245   -2.0859   -3.0328 H       1  LIG1        0.0624
     60 H           4.0150   -2.8521   -1.0248 H       1  LIG1        0.0637
     61 H           0.6401   -4.2624   -3.2266 H       1  LIG1        0.0618
     62 H           2.8523   -4.6802   -2.1773 H       1  LIG1        0.0618
     63 H           3.1388    3.0898   -1.2531 H       1  LIG1        0.0280
     64 H           3.9706    4.4917   -1.9105 H       1  LIG1        0.0280
     65 H           4.3779    3.9083   -0.2850 H       1  LIG1        0.0280
     66 H          -1.6537    6.9835   -0.8805 H       1  LIG1        0.1046
     67 H          -3.6979    5.8304    0.6641 H       1  LIG1        0.0862
     68 H           8.2031    4.2703   -2.5191 H       1  LIG1        0.0309
     69 H           7.0976    4.8708   -1.2717 H       1  LIG1        0.0309
     70 H           6.7094    5.0983   -2.9889 H       1  LIG1        0.0309
@<TRIPOS>BOND
     1     1     3    2
     2     1     4    2
     3     1     8    1
     4     1    23    1
     5     2    16    2
     6     5    30   ar
     7     5    36   ar
     8     6    10   ar
     9     6    34   ar
    10     7    16   am
    11     7    17    1
    12     7    21    1
    13     8    32    1
    14     9    30   ar
    15     9    37   ar
    16    10    32   ar
    17    11    12    1
    18    11    13    1
    19    11    14    1
    20    11    15    1
    21    12    16    1
    22    17    18    1
    23    18    19   ar
    24    18    22   ar
    25    19    20    1
    26    19    24   ar
    27    20    23   ar
    28    20    27   ar
    29    22    25   ar
    30    23    28   ar
    31    24    26   ar
    32    25    26   ar
    33    25    30    1
    34    27    29   ar
    35    28    31   ar
    36    29    31   ar
    37    32    33   ar
    38    33    34   ar
    39    33    35    1
    40    34    38    1
    41    36    37   ar
    42     8    39    1
    43    12    40    1
    44    12    41    1
    45    13    42    1
    46    13    43    1
    47    13    44    1
    48    14    45    1
    49    14    46    1
    50    14    47    1
    51    15    48    1
    52    15    49    1
    53    15    50    1
    54    17    51    1
    55    17    52    1
    56    21    53    1
    57    21    54    1
    58    21    55    1
    59    22    56    1
    60    24    57    1
    61    26    58    1
    62    27    59    1
    63    28    60    1
    64    29    61    1
    65    31    62    1
    66    35    63    1
    67    35    64    1
    68    35    65    1
    69    36    66    1
    70    37    67    1
    71    38    68    1
    72    38    69    1
    73    38    70    1
@<TRIPOS>MOLECULE
156690
 70 73 0 0 0
SMALL
GASTEIGER

@<TRIPOS>ATOM
      1 S           3.5464   -0.0736   -0.6409 S.O2    1  LIG1        0.0741
      2 O          -2.0900   -1.0246   -3.3462 O.2     1  LIG1       -0.2756
      3 O           2.7704    0.9344    0.0424 O.2     1  LIG1       -0.1499
      4 O           4.6859   -0.6842    0.0126 O.2     1  LIG1       -0.1499
      5 O          -0.8711    4.8742   -0.5475 O.2     1  LIG1       -0.4436
      6 O           7.0879    2.0473   -2.8748 O.2     1  LIG1       -0.3578
      7 N          -3.1140   -1.1919   -1.2978 N.am    1  LIG1       -0.3002
      8 N           4.0645    0.4779   -2.1617 N.pl3   1  LIG1       -0.1965
      9 N          -2.9121    3.9644   -0.2152 N.ar    1  LIG1       -0.2175
     10 N           6.2559    0.9483   -2.8410 N.ar    1  LIG1       -0.0614
     11 C          -4.4260   -1.2886   -4.9657 C.3     1  LIG1       -0.0295
     12 C          -4.4667   -1.2881   -3.4085 C.3     1  LIG1        0.0290
     13 C          -3.6115   -2.4757   -5.5141 C.3     1  LIG1       -0.0596
     14 C          -5.8746   -1.4387   -5.4761 C.3     1  LIG1       -0.0596
     15 C          -3.8680    0.0331   -5.5262 C.3     1  LIG1       -0.0596
     16 C          -3.1230   -1.1586   -2.6939 C.2     1  LIG1        0.2161
     17 C          -1.8181   -1.1750   -0.5801 C.3     1  LIG1        0.0400
     18 C          -0.9714    0.0439   -0.9087 C.ar    1  LIG1       -0.0216
     19 C           0.3132    0.0112   -1.5232 C.ar    1  LIG1       -0.0113
     20 C           1.1489   -1.2258   -1.6768 C.ar    1  LIG1        0.0090
     21 C          -4.2924   -1.4472   -0.4829 C.3     1  LIG1        0.0035
     22 C          -1.5890    1.2895   -0.6220 C.ar    1  LIG1       -0.0442
     23 C           2.4776   -1.4052   -1.2119 C.ar    1  LIG1        0.1162
     24 C           0.7918    1.2448   -2.0077 C.ar    1  LIG1       -0.0529
     25 C          -1.0138    2.5077   -0.9826 C.ar    1  LIG1        0.0372
     26 C           0.1641    2.4682   -1.7215 C.ar    1  LIG1       -0.0489
     27 C           0.6014   -2.3445   -2.3431 C.ar    1  LIG1       -0.0521
     28 C           3.1288   -2.6609   -1.3081 C.ar    1  LIG1       -0.0345
     29 C           1.2482   -3.5814   -2.4494 C.ar    1  LIG1       -0.0611
     30 C          -1.6639    3.7547   -0.5984 C.ar    1  LIG1        0.2271
     31 C           2.5086   -3.7472   -1.9100 C.ar    1  LIG1       -0.0599
     32 C           5.1343    1.3598   -2.2457 C.ar    1  LIG1        0.1837
     33 C           5.1701    2.7442   -1.9523 C.ar    1  LIG1        0.0342
     34 C           6.4354    3.1204   -2.3596 C.ar    1  LIG1        0.1390
     35 C           4.1122    3.6311   -1.4230 C.3     1  LIG1       -0.0330
     36 C          -1.7036    5.8520   -0.0935 C.ar    1  LIG1        0.1125
     37 C          -2.9447    5.3005    0.0935 C.ar    1  LIG1        0.0663
     38 C           7.1636    4.4030   -2.3934 C.3     1  LIG1       -0.0034
     39 H           4.2707   -0.3369   -2.7419 H       1  LIG1        0.1753
     40 H          -4.9273   -2.2267   -3.0757 H       1  LIG1        0.0364
     41 H          -5.0971   -0.4546   -3.0743 H       1  LIG1        0.0364
     42 H          -3.9772   -3.4254   -5.1078 H       1  LIG1        0.0235
     43 H          -2.5470   -2.3997   -5.2764 H       1  LIG1        0.0235
     44 H          -3.6863   -2.5317   -6.6066 H       1  LIG1        0.0235
     45 H          -6.3249   -2.3726   -5.1215 H       1  LIG1        0.0235
     46 H          -5.9102   -1.4495   -6.5721 H       1  LIG1        0.0235
     47 H          -6.5035   -0.6100   -5.1324 H       1  LIG1        0.0235
     48 H          -2.8061    0.1688   -5.3038 H       1  LIG1        0.0235
     49 H          -4.4077    0.8940   -5.1164 H       1  LIG1        0.0235
     50 H          -3.9668    0.0688   -6.6177 H       1  LIG1        0.0235
     51 H          -1.3264   -2.1286   -0.7683 H       1  LIG1        0.0514
     52 H          -2.0171   -1.1548    0.5002 H       1  LIG1        0.0514
     53 H          -5.2249   -1.3726   -1.0431 H       1  LIG1        0.0429
     54 H          -4.3256   -0.7153    0.3301 H       1  LIG1        0.0429
     55 H          -4.2129   -2.4548   -0.0640 H       1  LIG1        0.0429
     56 H          -2.5522    1.3003   -0.1117 H       1  LIG1        0.0628
     57 H           1.7007    1.2837   -2.6007 H       1  LIG1        0.0624
     58 H           0.6233    3.3894   -2.0717 H       1  LIG1        0.0625
     59 H          -0.3753   -2.2771   -2.8100 H       1  LIG1        0.0624
     60 H           4.1453   -2.7954   -0.9398 H       1  LIG1        0.0637
     61 H           0.7532   -4.4058   -2.9572 H       1  LIG1        0.0618
     62 H           3.0203   -4.7036   -1.9867 H       1  LIG1        0.0618
     63 H           3.1743    3.1012   -1.2580 H       1  LIG1        0.0280
     64 H           3.9070    4.4386   -2.1346 H       1  LIG1        0.0280
     65 H           4.4245    4.0802   -0.4759 H       1  LIG1        0.0280
     66 H          -1.2724    6.8329    0.0372 H       1  LIG1        0.1046
     67 H          -3.8481    5.7843    0.4366 H       1  LIG1        0.0862
     68 H           8.2114    4.2595   -2.6755 H       1  LIG1        0.0309
     69 H           7.1395    4.8856   -1.4118 H       1  LIG1        0.0309
     70 H           6.7066    5.0793   -3.1226 H       1  LIG1        0.0309
@<TRIPOS>BOND
     1     1     3    2
     2     1     4    2
     3     1     8    1
     4     1    23    1
     5     2    16    2
     6     5    30   ar
     7     5    36   ar
     8     6    10   ar
     9     6    34   ar
    10     7    16   am
    11     7    17    1
    12     7    21    1
    13     8    32    1
    14     9    30   ar
    15     9    37   ar
    16    10    32   ar
    17    11    12    1
    18    11    13    1
    19    11    14    1
    20    11    15    1
    21    12    16    1
    22    17    18    1
    23    18    19   ar
    24    18    22   ar
    25    19    20    1
    26    19    24   ar
    27    20    23   ar
    28    20    27   ar
    29    22    25   ar
    30    23    28   ar
    31    24    26   ar
    32    25    26   ar
    33    25    30    1
    34    27    29   ar
    35    28    31   ar
    36    29    31   ar
    37    32    33   ar
    38    33    34   ar
    39    33    35    1
    40    34    38    1
    41    36    37   ar
    42     8    39    1
    43    12    40    1
    44    12    41    1
    45    13    42    1
    46    13    43    1
    47    13    44    1
    48    14    45    1
    49    14    46    1
    50    14    47    1
    51    15    48    1
    52    15    49    1
    53    15    50    1
    54    17    51    1
    55    17    52    1
    56    21    53    1
    57    21    54    1
    58    21    55    1
    59    22    56    1
    60    24    57    1
    61    26    58    1
    62    27    59    1
    63    28    60    1
    64    29    61    1
    65    31    62    1
    66    35    63    1
    67    35    64    1
    68    35    65    1
    69    36    66    1
    70    37    67    1
    71    38    68    1
    72    38    69    1
    73    38    70    1
@<TRIPOS>MOLECULE
156690
 70 73 0 0 0
SMALL
GASTEIGER

@<TRIPOS>ATOM
      1 S           3.5308   -0.0781   -0.6207 S.O2    1  LIG1        0.0741
      2 O          -2.1259   -1.1219   -3.3992 O.2     1  LIG1       -0.2756
      3 O           2.7238    0.9253    0.0297 O.2     1  LIG1       -0.1499
      4 O           4.6504   -0.6836    0.0712 O.2     1  LIG1       -0.1499
      5 O          -0.8778    4.8911   -0.8115 O.2     1  LIG1       -0.4436
      6 O           7.0930    2.0888   -2.8253 O.2     1  LIG1       -0.3578
      7 N          -3.0689   -1.2012   -1.3092 N.am    1  LIG1       -0.3002
      8 N           4.0957    0.4688   -2.1255 N.pl3   1  LIG1       -0.1965
      9 N          -2.8213    3.9264   -0.1841 N.ar    1  LIG1       -0.2175
     10 N           6.2706    0.9829   -2.8156 N.ar    1  LIG1       -0.0614
     11 C          -4.5484   -1.2543   -4.9121 C.3     1  LIG1       -0.0295
     12 C          -4.5142   -1.2804   -3.3549 C.3     1  LIG1        0.0290
     13 C          -6.0230   -1.3634   -5.3541 C.3     1  LIG1       -0.0596
     14 C          -3.9876    0.0661   -5.4721 C.3     1  LIG1       -0.0596
     15 C          -3.7887   -2.4474   -5.5223 C.3     1  LIG1       -0.0596
     16 C          -3.1360   -1.1960   -2.7032 C.2     1  LIG1        0.2161
     17 C          -1.7392   -1.1934   -0.6570 C.3     1  LIG1        0.0400
     18 C          -0.9174    0.0351   -1.0114 C.ar    1  LIG1       -0.0216
     19 C           0.3585    0.0086   -1.6399 C.ar    1  LIG1       -0.0113
     20 C           1.1943   -1.2246   -1.7756 C.ar    1  LIG1        0.0090
     21 C          -4.2092   -1.4442   -0.4391 C.3     1  LIG1        0.0035
     22 C          -1.5340    1.2787   -0.7234 C.ar    1  LIG1       -0.0442
     23 C           2.4883   -1.4145   -1.2312 C.ar    1  LIG1        0.1162
     24 C           0.8313    1.2373   -2.1407 C.ar    1  LIG1       -0.0529
     25 C          -0.9708    2.4961   -1.1041 C.ar    1  LIG1        0.0372
     26 C           0.1970    2.4591   -1.8605 C.ar    1  LIG1       -0.0489
     27 C           0.6777   -2.3272   -2.4886 C.ar    1  LIG1       -0.0521
     28 C           3.1327   -2.6742   -1.2894 C.ar    1  LIG1       -0.0345
     29 C           1.3201   -3.5682   -2.5605 C.ar    1  LIG1       -0.0611
     30 C          -1.6214    3.7419   -0.7051 C.ar    1  LIG1        0.2271
     31 C           2.5397   -3.7511   -1.9361 C.ar    1  LIG1       -0.0599
     32 C           5.1545    1.3649   -2.1909 C.ar    1  LIG1        0.1837
     33 C           5.1864    2.7377   -1.8461 C.ar    1  LIG1        0.0342
     34 C           6.4419    3.1378   -2.2617 C.ar    1  LIG1        0.1390
     35 C           4.1330    3.5949   -1.2627 C.3     1  LIG1       -0.0330
     36 C          -1.6911    5.8609   -0.3055 C.ar    1  LIG1        0.1125
     37 C          -2.8734    5.2734    0.0654 C.ar    1  LIG1        0.0663
     38 C           7.1598    4.4264   -2.2653 C.3     1  LIG1       -0.0034
     39 H           4.3169   -0.3413   -2.7058 H       1  LIG1        0.1753
     40 H          -4.9823   -2.2121   -3.0130 H       1  LIG1        0.0364
     41 H          -5.1073   -0.4368   -2.9796 H       1  LIG1        0.0364
     42 H          -6.6166   -0.5295   -4.9637 H       1  LIG1        0.0235
     43 H          -6.4755   -2.2953   -4.9970 H       1  LIG1        0.0235
     44 H          -6.1114   -1.3501   -6.4469 H       1  LIG1        0.0235
     45 H          -4.4966    0.9297   -5.0296 H       1  LIG1        0.0235
     46 H          -4.1255    0.1213   -6.5584 H       1  LIG1        0.0235
     47 H          -2.9161    0.1791   -5.2847 H       1  LIG1        0.0235
     48 H          -4.1470   -3.3960   -5.1082 H       1  LIG1        0.0235
     49 H          -2.7108   -2.3929   -5.3476 H       1  LIG1        0.0235
     50 H          -3.9282   -2.4863   -6.6095 H       1  LIG1        0.0235
     51 H          -1.2555   -2.1394   -0.9000 H       1  LIG1        0.0514
     52 H          -1.8794   -1.1964    0.4319 H       1  LIG1        0.0514
     53 H          -5.1654   -1.3337   -0.9505 H       1  LIG1        0.0429
     54 H          -4.1819   -0.7321    0.3905 H       1  LIG1        0.0429
     55 H          -4.1347   -2.4637   -0.0488 H       1  LIG1        0.0429
     56 H          -2.4869    1.2881   -0.1931 H       1  LIG1        0.0628
     57 H           1.7408    1.2731   -2.7340 H       1  LIG1        0.0624
     58 H           0.6476    3.3794   -2.2230 H       1  LIG1        0.0625
     59 H          -0.2695   -2.2398   -3.0128 H       1  LIG1        0.0624
     60 H           4.1224   -2.8192   -0.8568 H       1  LIG1        0.0637
     61 H           0.8524   -4.3854   -3.1052 H       1  LIG1        0.0618
     62 H           3.0444   -4.7125   -1.9829 H       1  LIG1        0.0618
     63 H           3.1622    3.0995   -1.2485 H       1  LIG1        0.0280
     64 H           4.0165    4.5100   -1.8548 H       1  LIG1        0.0280
     65 H           4.3931    3.8809   -0.2389 H       1  LIG1        0.0280
     66 H          -1.2925    6.8629   -0.2806 H       1  LIG1        0.1046
     67 H          -3.7457    5.7394    0.5007 H       1  LIG1        0.0862
     68 H           8.2160    4.2929   -2.5219 H       1  LIG1        0.0309
     69 H           7.1075    4.9007   -1.2809 H       1  LIG1        0.0309
     70 H           6.7161    5.1044   -3.0006 H       1  LIG1        0.0309
@<TRIPOS>BOND
     1     1     3    2
     2     1     4    2
     3     1     8    1
     4     1    23    1
     5     2    16    2
     6     5    30   ar
     7     5    36   ar
     8     6    10   ar
     9     6    34   ar
    10     7    16   am
    11     7    17    1
    12     7    21    1
    13     8    32    1
    14     9    30   ar
    15     9    37   ar
    16    10    32   ar
    17    11    12    1
    18    11    13    1
    19    11    14    1
    20    11    15    1
    21    12    16    1
    22    17    18    1
    23    18    19   ar
    24    18    22   ar
    25    19    20    1
    26    19    24   ar
    27    20    23   ar
    28    20    27   ar
    29    22    25   ar
    30    23    28   ar
    31    24    26   ar
    32    25    26   ar
    33    25    30    1
    34    27    29   ar
    35    28    31   ar
    36    29    31   ar
    37    32    33   ar
    38    33    34   ar
    39    33    35    1
    40    34    38    1
    41    36    37   ar
    42     8    39    1
    43    12    40    1
    44    12    41    1
    45    13    42    1
    46    13    43    1
    47    13    44    1
    48    14    45    1
    49    14    46    1
    50    14    47    1
    51    15    48    1
    52    15    49    1
    53    15    50    1
    54    17    51    1
    55    17    52    1
    56    21    53    1
    57    21    54    1
    58    21    55    1
    59    22    56    1
    60    24    57    1
    61    26    58    1
    62    27    59    1
    63    28    60    1
    64    29    61    1
    65    31    62    1
    66    35    63    1
    67    35    64    1
    68    35    65    1
    69    36    66    1
    70    37    67    1
    71    38    68    1
    72    38    69    1
    73    38    70    1
@<TRIPOS>MOLECULE
156690
 70 73 0 0 0
SMALL
GASTEIGER

@<TRIPOS>ATOM
      1 S           3.3891   -0.3804   -0.6434 S.O2    1  LIG1        0.0741
      2 O          -3.9244   -1.1075   -1.8033 O.2     1  LIG1       -0.2756
      3 O           2.6865    0.6278    0.1257 O.2     1  LIG1       -0.1499
      4 O           4.4645   -1.1269   -0.0299 O.2     1  LIG1       -0.1499
      5 O          -3.1353    3.7762   -0.0846 O.2     1  LIG1       -0.4436
      6 O           5.1353   -1.8933   -4.4424 O.2     1  LIG1       -0.3578
      7 N          -3.1472   -1.0398    0.3535 N.am    1  LIG1       -0.3002
      8 N           3.9690    0.3886   -2.0430 N.pl3   1  LIG1       -0.1965
      9 N          -1.3429    5.0460   -0.6099 N.ar    1  LIG1       -0.2175
     10 N           5.1642   -1.3392   -3.1808 N.ar    1  LIG1       -0.0614
     11 C          -6.6945   -0.4054   -1.1254 C.3     1  LIG1       -0.0295
     12 C          -5.5712   -0.6668   -0.0861 C.3     1  LIG1        0.0290
     13 C          -6.3792    0.8186   -2.0023 C.3     1  LIG1       -0.0596
     14 C          -6.9534   -1.6345   -2.0118 C.3     1  LIG1       -0.0596
     15 C          -7.9939   -0.1049   -0.3440 C.3     1  LIG1       -0.0596
     16 C          -4.1624   -0.9605   -0.6047 C.2     1  LIG1        0.2161
     17 C          -1.7632   -1.1991   -0.1138 C.3     1  LIG1        0.0400
     18 C          -1.1002    0.0790   -0.6303 C.ar    1  LIG1       -0.0216
     19 C           0.1257    0.0552   -1.3588 C.ar    1  LIG1       -0.0113
     20 C           0.8624   -1.2035   -1.6794 C.ar    1  LIG1        0.0090
     21 C          -3.3382   -0.9963    1.7970 C.3     1  LIG1        0.0035
     22 C          -1.7161    1.3287   -0.3575 C.ar    1  LIG1       -0.0442
     23 C           2.1886   -1.5399   -1.3075 C.ar    1  LIG1        0.1162
     24 C           0.6043    1.2890   -1.8366 C.ar    1  LIG1       -0.0529
     25 C          -1.1873    2.5450   -0.8005 C.ar    1  LIG1        0.0372
     26 C          -0.0164    2.5091   -1.5478 C.ar    1  LIG1       -0.0489
     27 C           0.1778   -2.1754   -2.4462 C.ar    1  LIG1       -0.0521
     28 C           2.7038   -2.8343   -1.5454 C.ar    1  LIG1       -0.0345
     29 C           0.7053   -3.4448   -2.7077 C.ar    1  LIG1       -0.0611
     30 C          -1.8292    3.8222   -0.5068 C.ar    1  LIG1        0.2271
     31 C           1.9602   -3.7851   -2.2319 C.ar    1  LIG1       -0.0599
     32 C           4.2495   -0.3683   -3.1798 C.ar    1  LIG1        0.1837
     33 C           3.6176   -0.2520   -4.4515 C.ar    1  LIG1        0.0342
     34 C           4.2026   -1.2571   -5.1947 C.ar    1  LIG1        0.1390
     35 C           2.5186    0.6383   -4.8848 C.3     1  LIG1       -0.0330
     36 C          -3.4764    5.0826    0.0885 C.ar    1  LIG1        0.1125
     37 C          -2.3822    5.8501   -0.2165 C.ar    1  LIG1        0.0663
     38 C           3.9976   -1.7833   -6.5585 C.3     1  LIG1       -0.0034
     39 H           3.5450    1.3017   -2.1586 H       1  LIG1        0.1753
     40 H          -5.8664   -1.5185    0.5401 H       1  LIG1        0.0364
     41 H          -5.4987    0.2210    0.5559 H       1  LIG1        0.0364
     42 H          -5.5139    0.6506   -2.6499 H       1  LIG1        0.0235
     43 H          -6.1718    1.7019   -1.3877 H       1  LIG1        0.0235
     44 H          -7.2264    1.0623   -2.6545 H       1  LIG1        0.0235
     45 H          -6.1113   -1.8525   -2.6743 H       1  LIG1        0.0235
     46 H          -7.8302   -1.4782   -2.6516 H       1  LIG1        0.0235
     47 H          -7.1436   -2.5260   -1.4042 H       1  LIG1        0.0235
     48 H          -7.8768    0.7761    0.2973 H       1  LIG1        0.0235
     49 H          -8.2757   -0.9489    0.2959 H       1  LIG1        0.0235
     50 H          -8.8320    0.0901   -1.0232 H       1  LIG1        0.0235
     51 H          -1.8105   -1.9488   -0.9047 H       1  LIG1        0.0514
     52 H          -1.1569   -1.6119    0.7008 H       1  LIG1        0.0514
     53 H          -4.3786   -0.8573    2.0884 H       1  LIG1        0.0429
     54 H          -2.7433   -0.1763    2.2094 H       1  LIG1        0.0429
     55 H          -2.9883   -1.9440    2.2179 H       1  LIG1        0.0429
     56 H          -2.6396    1.3595    0.2158 H       1  LIG1        0.0628
     57 H           1.4914    1.3288   -2.4479 H       1  LIG1        0.0624
     58 H           0.4229    3.4352   -1.9148 H       1  LIG1        0.0625
     59 H          -0.8121   -1.9491   -2.8477 H       1  LIG1        0.0624
     60 H           3.7189   -3.0940   -1.2409 H       1  LIG1        0.0637
     61 H           0.1250   -4.1666   -3.2770 H       1  LIG1        0.0618
     62 H           2.3796   -4.7694   -2.4237 H       1  LIG1        0.0618
     63 H           2.6251    1.6385   -4.4561 H       1  LIG1        0.0280
     64 H           1.5546    0.2207   -4.5758 H       1  LIG1        0.0280
     65 H           2.4940    0.7483   -5.9733 H       1  LIG1        0.0280
     66 H          -4.4854    5.2804    0.4175 H       1  LIG1        0.1046
     67 H          -2.2880    6.9263   -0.1799 H       1  LIG1        0.0862
     68 H           4.9200   -2.2147   -6.9588 H       1  LIG1        0.0309
     69 H           3.6723   -0.9934   -7.2422 H       1  LIG1        0.0309
     70 H           3.2296   -2.5633   -6.5487 H       1  LIG1        0.0309
@<TRIPOS>BOND
     1     1     3    2
     2     1     4    2
     3     1     8    1
     4     1    23    1
     5     2    16    2
     6     5    30   ar
     7     5    36   ar
     8     6    10   ar
     9     6    34   ar
    10     7    16   am
    11     7    17    1
    12     7    21    1
    13     8    32    1
    14     9    30   ar
    15     9    37   ar
    16    10    32   ar
    17    11    12    1
    18    11    13    1
    19    11    14    1
    20    11    15    1
    21    12    16    1
    22    17    18    1
    23    18    19   ar
    24    18    22   ar
    25    19    20    1
    26    19    24   ar
    27    20    23   ar
    28    20    27   ar
    29    22    25   ar
    30    23    28   ar
    31    24    26   ar
    32    25    26   ar
    33    25    30    1
    34    27    29   ar
    35    28    31   ar
    36    29    31   ar
    37    32    33   ar
    38    33    34   ar
    39    33    35    1
    40    34    38    1
    41    36    37   ar
    42     8    39    1
    43    12    40    1
    44    12    41    1
    45    13    42    1
    46    13    43    1
    47    13    44    1
    48    14    45    1
    49    14    46    1
    50    14    47    1
    51    15    48    1
    52    15    49    1
    53    15    50    1
    54    17    51    1
    55    17    52    1
    56    21    53    1
    57    21    54    1
    58    21    55    1
    59    22    56    1
    60    24    57    1
    61    26    58    1
    62    27    59    1
    63    28    60    1
    64    29    61    1
    65    31    62    1
    66    35    63    1
    67    35    64    1
    68    35    65    1
    69    36    66    1
    70    37    67    1
    71    38    68    1
    72    38    69    1
    73    38    70    1
@<TRIPOS>MOLECULE
156690
 70 73 0 0 0
SMALL
GASTEIGER

@<TRIPOS>ATOM
      1 S           3.3819   -0.3710   -0.6446 S.O2    1  LIG1        0.0741
      2 O          -3.9775   -1.1076   -1.8237 O.2     1  LIG1       -0.2756
      3 O           2.6773    0.6401    0.1150 O.2     1  LIG1       -0.1499
      4 O           4.4554   -1.1154   -0.0200 O.2     1  LIG1       -0.1499
      5 O          -3.1379    3.7732   -0.1091 O.2     1  LIG1       -0.4436
      6 O           5.1279   -1.9019   -4.4406 O.2     1  LIG1       -0.3578
      7 N          -3.1549   -1.0463    0.3165 N.am    1  LIG1       -0.3002
      8 N           3.9769    0.3890   -2.0427 N.pl3   1  LIG1       -0.1965
      9 N          -1.3376    5.0412   -0.6104 N.ar    1  LIG1       -0.2175
     10 N           5.1604   -1.3473   -3.1791 N.ar    1  LIG1       -0.0614
     11 C          -6.7364   -0.4319   -1.0858 C.3     1  LIG1       -0.0295
     12 C          -5.5861   -0.6687   -0.0709 C.3     1  LIG1        0.0290
     13 C          -8.0164   -0.1241   -0.2760 C.3     1  LIG1       -0.0596
     14 C          -6.4523    0.7770   -1.9937 C.3     1  LIG1       -0.0596
     15 C          -7.0098   -1.6794   -1.9417 C.3     1  LIG1       -0.0596
     16 C          -4.1889   -0.9641   -0.6211 C.2     1  LIG1        0.2161
     17 C          -1.7820   -1.2091   -0.1807 C.3     1  LIG1        0.0400
     18 C          -1.1110    0.0740   -0.6737 C.ar    1  LIG1       -0.0216
     19 C           0.1252    0.0543   -1.3848 C.ar    1  LIG1       -0.0113
     20 C           0.8681   -1.2031   -1.6991 C.ar    1  LIG1        0.0090
     21 C          -3.3133   -0.9958    1.7635 C.3     1  LIG1        0.0035
     22 C          -1.7291    1.3223   -0.4008 C.ar    1  LIG1       -0.0442
     23 C           2.1902   -1.5366   -1.3115 C.ar    1  LIG1        0.1162
     24 C           0.6127    1.2912   -1.8449 C.ar    1  LIG1       -0.0529
     25 C          -1.1890    2.5417   -0.8214 C.ar    1  LIG1        0.0372
     26 C          -0.0075    2.5101   -1.5515 C.ar    1  LIG1       -0.0489
     27 C           0.1942   -2.1768   -2.4728 C.ar    1  LIG1       -0.0521
     28 C           2.7090   -2.8322   -1.5362 C.ar    1  LIG1       -0.0345
     29 C           0.7264   -3.4464   -2.7236 C.ar    1  LIG1       -0.0611
     30 C          -1.8290    3.8183   -0.5216 C.ar    1  LIG1        0.2271
     31 C           1.9742   -3.7851   -2.2283 C.ar    1  LIG1       -0.0599
     32 C           4.2520   -0.3707   -3.1788 C.ar    1  LIG1        0.1837
     33 C           3.6200   -0.2511   -4.4496 C.ar    1  LIG1        0.0342
     34 C           4.1992   -1.2598   -5.1927 C.ar    1  LIG1        0.1390
     35 C           2.5263    0.6456   -4.8828 C.3     1  LIG1       -0.0330
     36 C          -3.4759    5.0793    0.0724 C.ar    1  LIG1        0.1125
     37 C          -2.3770    5.8456   -0.2183 C.ar    1  LIG1        0.0663
     38 C           3.9914   -1.7840   -6.5570 C.3     1  LIG1       -0.0034
     39 H           3.5598    1.3051   -2.1597 H       1  LIG1        0.1753
     40 H          -5.8611   -1.5109    0.5767 H       1  LIG1        0.0364
     41 H          -5.5009    0.2303    0.5536 H       1  LIG1        0.0364
     42 H          -7.8880    0.7705    0.3440 H       1  LIG1        0.0235
     43 H          -8.2748   -0.9566    0.3882 H       1  LIG1        0.0235
     44 H          -8.8737    0.0517   -0.9361 H       1  LIG1        0.0235
     45 H          -6.2309    1.6722   -1.4018 H       1  LIG1        0.0235
     46 H          -7.3194    1.0052   -2.6250 H       1  LIG1        0.0235
     47 H          -5.6061    0.6010   -2.6639 H       1  LIG1        0.0235
     48 H          -7.1817   -2.5596   -1.3123 H       1  LIG1        0.0235
     49 H          -6.1815   -1.9071   -2.6184 H       1  LIG1        0.0235
     50 H          -7.9016   -1.5397   -2.5642 H       1  LIG1        0.0235
     51 H          -1.8513   -1.9332   -0.9938 H       1  LIG1        0.0514
     52 H          -1.1689   -1.6543    0.6112 H       1  LIG1        0.0514
     53 H          -4.3442   -0.8350    2.0769 H       1  LIG1        0.0429
     54 H          -2.6941   -0.1868    2.1608 H       1  LIG1        0.0429
     55 H          -2.9724   -1.9489    2.1787 H       1  LIG1        0.0429
     56 H          -2.6623    1.3506    0.1567 H       1  LIG1        0.0628
     57 H           1.5093    1.3352   -2.4415 H       1  LIG1        0.0624
     58 H           0.4417    3.4386   -1.8999 H       1  LIG1        0.0625
     59 H          -0.7913   -1.9538   -2.8874 H       1  LIG1        0.0624
     60 H           3.7205   -3.0903   -1.2184 H       1  LIG1        0.0637
     61 H           0.1532   -4.1714   -3.2959 H       1  LIG1        0.0618
     62 H           2.3952   -4.7706   -2.4097 H       1  LIG1        0.0618
     63 H           2.6352    1.6434   -4.4489 H       1  LIG1        0.0280
     64 H           1.5593    0.2307   -4.5799 H       1  LIG1        0.0280
     65 H           2.5068    0.7610   -5.9708 H       1  LIG1        0.0280
     66 H          -4.4866    5.2776    0.3956 H       1  LIG1        0.1046
     67 H          -2.2795    6.9211   -0.1724 H       1  LIG1        0.0862
     68 H           4.9130   -2.2140   -6.9601 H       1  LIG1        0.0309
     69 H           3.6639   -0.9930   -7.2385 H       1  LIG1        0.0309
     70 H           3.2235   -2.5642   -6.5468 H       1  LIG1        0.0309
@<TRIPOS>BOND
     1     1     3    2
     2     1     4    2
     3     1     8    1
     4     1    23    1
     5     2    16    2
     6     5    30   ar
     7     5    36   ar
     8     6    10   ar
     9     6    34   ar
    10     7    16   am
    11     7    17    1
    12     7    21    1
    13     8    32    1
    14     9    30   ar
    15     9    37   ar
    16    10    32   ar
    17    11    12    1
    18    11    13    1
    19    11    14    1
    20    11    15    1
    21    12    16    1
    22    17    18    1
    23    18    19   ar
    24    18    22   ar
    25    19    20    1
    26    19    24   ar
    27    20    23   ar
    28    20    27   ar
    29    22    25   ar
    30    23    28   ar
    31    24    26   ar
    32    25    26   ar
    33    25    30    1
    34    27    29   ar
    35    28    31   ar
    36    29    31   ar
    37    32    33   ar
    38    33    34   ar
    39    33    35    1
    40    34    38    1
    41    36    37   ar
    42     8    39    1
    43    12    40    1
    44    12    41    1
    45    13    42    1
    46    13    43    1
    47    13    44    1
    48    14    45    1
    49    14    46    1
    50    14    47    1
    51    15    48    1
    52    15    49    1
    53    15    50    1
    54    17    51    1
    55    17    52    1
    56    21    53    1
    57    21    54    1
    58    21    55    1
    59    22    56    1
    60    24    57    1
    61    26    58    1
    62    27    59    1
    63    28    60    1
    64    29    61    1
    65    31    62    1
    66    35    63    1
    67    35    64    1
    68    35    65    1
    69    36    66    1
    70    37    67    1
    71    38    68    1
    72    38    69    1
    73    38    70    1
@<TRIPOS>MOLECULE
156690
 70 73 0 0 0
SMALL
GASTEIGER

@<TRIPOS>ATOM
      1 S           3.2495   -0.5316   -0.4823 S.O2    1  LIG1        0.0741
      2 O          -3.9280   -0.8742   -1.8935 O.2     1  LIG1       -0.2756
      3 O           2.4504    0.3013    0.3914 O.2     1  LIG1       -0.1499
      4 O           4.3374   -1.3017    0.0922 O.2     1  LIG1       -0.1499
      5 O          -2.8929    3.7986   -0.2262 O.2     1  LIG1       -0.4436
      6 O           5.2425   -1.2168   -4.4198 O.2     1  LIG1       -0.3578
      7 N          -3.0383   -1.0353    0.2119 N.am    1  LIG1       -0.3002
      8 N           3.9439    0.4847   -1.6430 N.pl3   1  LIG1       -0.1965
      9 N          -1.0917    5.0300   -0.8082 N.ar    1  LIG1       -0.2175
     10 N           4.2133   -0.8975   -3.5646 N.ar    1  LIG1       -0.0614
     11 C          -6.4863    0.2579   -0.9699 C.3     1  LIG1       -0.0295
     12 C          -5.4479   -0.4547   -0.0621 C.3     1  LIG1        0.0290
     13 C          -7.7549    0.5074   -0.1236 C.3     1  LIG1       -0.0596
     14 C          -5.9491    1.6210   -1.4396 C.3     1  LIG1       -0.0596
     15 C          -6.8969   -0.5905   -2.1843 C.3     1  LIG1       -0.0596
     16 C          -4.0889   -0.7984   -0.6776 C.2     1  LIG1        0.2161
     17 C          -1.6889   -1.2067   -0.3452 C.3     1  LIG1        0.0400
     18 C          -1.0018    0.0644   -0.8400 C.ar    1  LIG1       -0.0216
     19 C           0.2068    0.0076   -1.5923 C.ar    1  LIG1       -0.0113
     20 C           0.9069   -1.2681   -1.8791 C.ar    1  LIG1        0.0090
     21 C          -3.1541   -1.0701    1.6623 C.3     1  LIG1        0.0035
     22 C          -1.5651    1.3275   -0.5512 C.ar    1  LIG1       -0.0442
     23 C           2.1794   -1.6330   -1.3891 C.ar    1  LIG1        0.1162
     24 C           0.7309    1.2126   -2.0978 C.ar    1  LIG1       -0.0529
     25 C          -1.0043    2.5229   -1.0171 C.ar    1  LIG1        0.0372
     26 C           0.1469    2.4496   -1.8017 C.ar    1  LIG1       -0.0489
     27 C           0.2525   -2.2135   -2.7000 C.ar    1  LIG1       -0.0521
     28 C           2.6941   -2.9286   -1.6139 C.ar    1  LIG1       -0.0345
     29 C           0.7764   -3.4883   -2.9369 C.ar    1  LIG1       -0.0611
     30 C          -1.6031    3.8168   -0.7009 C.ar    1  LIG1        0.2271
     31 C           1.9914   -3.8530   -2.3779 C.ar    1  LIG1       -0.0599
     32 C           4.7249   -0.0659   -2.6559 C.ar    1  LIG1        0.1837
     33 C           6.0923    0.2102   -2.9236 C.ar    1  LIG1        0.0342
     34 C           6.3659   -0.5606   -4.0367 C.ar    1  LIG1        0.1390
     35 C           7.0453    1.0605   -2.1787 C.3     1  LIG1       -0.0330
     36 C          -3.1958    5.1098   -0.0257 C.ar    1  LIG1        0.1125
     37 C          -2.0968    5.8541   -0.3676 C.ar    1  LIG1        0.0663
     38 C           7.5740   -0.8176   -4.8443 C.3     1  LIG1       -0.0034
     39 H           4.2651    1.3388   -1.1968 H       1  LIG1        0.1753
     40 H          -5.8737   -1.3961    0.3090 H       1  LIG1        0.0364
     41 H          -5.2736    0.2002    0.7997 H       1  LIG1        0.0364
     42 H          -7.5310    1.1135    0.7615 H       1  LIG1        0.0235
     43 H          -8.1920   -0.4372    0.2198 H       1  LIG1        0.0235
     44 H          -8.5216    1.0370   -0.7010 H       1  LIG1        0.0235
     45 H          -5.6667    2.2485   -0.5864 H       1  LIG1        0.0235
     46 H          -6.7067    2.1668   -2.0137 H       1  LIG1        0.0235
     47 H          -5.0680    1.5137   -2.0798 H       1  LIG1        0.0235
     48 H          -7.1946   -1.5997   -1.8799 H       1  LIG1        0.0235
     49 H          -6.0941   -0.6807   -2.9208 H       1  LIG1        0.0235
     50 H          -7.7486   -0.1380   -2.7066 H       1  LIG1        0.0235
     51 H          -1.8088   -1.9049   -1.1771 H       1  LIG1        0.0514
     52 H          -1.0523   -1.6878    0.4062 H       1  LIG1        0.0514
     53 H          -4.1869   -1.1875    1.9932 H       1  LIG1        0.0429
     54 H          -2.7431   -0.1436    2.0714 H       1  LIG1        0.0429
     55 H          -2.5865   -1.9233    2.0463 H       1  LIG1        0.0429
     56 H          -2.4700    1.3872    0.0483 H       1  LIG1        0.0628
     57 H           1.6128    1.1993   -2.7351 H       1  LIG1        0.0624
     58 H           0.5975    3.3599   -2.1925 H       1  LIG1        0.0625
     59 H          -0.7033   -1.9595   -3.1606 H       1  LIG1        0.0624
     60 H           3.6694   -3.2149   -1.2229 H       1  LIG1        0.0637
     61 H           0.2289   -4.1925   -3.5579 H       1  LIG1        0.0618
     62 H           2.4075   -4.8410   -2.5559 H       1  LIG1        0.0618
     63 H           6.5481    1.6481   -1.4023 H       1  LIG1        0.0280
     64 H           7.5507    1.7567   -2.8561 H       1  LIG1        0.0280
     65 H           7.8077    0.4394   -1.6966 H       1  LIG1        0.0280
     66 H          -4.1856    5.3264    0.3471 H       1  LIG1        0.1046
     67 H          -1.9762    6.9274   -0.3240 H       1  LIG1        0.0862
     68 H           7.3375   -1.3964   -5.7433 H       1  LIG1        0.0309
     69 H           8.3069   -1.3839   -4.2615 H       1  LIG1        0.0309
     70 H           8.0352    0.1225   -5.1609 H       1  LIG1        0.0309
@<TRIPOS>BOND
     1     1     3    2
     2     1     4    2
     3     1     8    1
     4     1    23    1
     5     2    16    2
     6     5    30   ar
     7     5    36   ar
     8     6    10   ar
     9     6    34   ar
    10     7    16   am
    11     7    17    1
    12     7    21    1
    13     8    32    1
    14     9    30   ar
    15     9    37   ar
    16    10    32   ar
    17    11    12    1
    18    11    13    1
    19    11    14    1
    20    11    15    1
    21    12    16    1
    22    17    18    1
    23    18    19   ar
    24    18    22   ar
    25    19    20    1
    26    19    24   ar
    27    20    23   ar
    28    20    27   ar
    29    22    25   ar
    30    23    28   ar
    31    24    26   ar
    32    25    26   ar
    33    25    30    1
    34    27    29   ar
    35    28    31   ar
    36    29    31   ar
    37    32    33   ar
    38    33    34   ar
    39    33    35    1
    40    34    38    1
    41    36    37   ar
    42     8    39    1
    43    12    40    1
    44    12    41    1
    45    13    42    1
    46    13    43    1
    47    13    44    1
    48    14    45    1
    49    14    46    1
    50    14    47    1
    51    15    48    1
    52    15    49    1
    53    15    50    1
    54    17    51    1
    55    17    52    1
    56    21    53    1
    57    21    54    1
    58    21    55    1
    59    22    56    1
    60    24    57    1
    61    26    58    1
    62    27    59    1
    63    28    60    1
    64    29    61    1
    65    31    62    1
    66    35    63    1
    67    35    64    1
    68    35    65    1
    69    36    66    1
    70    37    67    1
    71    38    68    1
    72    38    69    1
    73    38    70    1
@<TRIPOS>MOLECULE
156690
 70 73 0 0 0
SMALL
GASTEIGER

@<TRIPOS>ATOM
      1 S           3.3275   -0.2982   -0.5710 S.O2    1  LIG1        0.0741
      2 O          -3.8915   -1.1284   -1.8887 O.2     1  LIG1       -0.2756
      3 O           2.5643    0.6804    0.1624 O.2     1  LIG1       -0.1499
      4 O           4.3969   -1.0457    0.0618 O.2     1  LIG1       -0.1499
      5 O          -2.9881    3.8274   -0.2176 O.2     1  LIG1       -0.4436
      6 O           6.3019    2.9099   -1.7402 O.2     1  LIG1       -0.3578
      7 N          -3.0468   -0.9904    0.2393 N.am    1  LIG1       -0.3002
      8 N           3.9485    0.3269   -2.0185 N.pl3   1  LIG1       -0.1965
      9 N          -1.2168    5.0842   -0.8337 N.ar    1  LIG1       -0.2175
     10 N           5.0637    2.3666   -1.4508 N.ar    1  LIG1       -0.0614
     11 C          -6.6361   -0.4065   -1.1478 C.3     1  LIG1       -0.0295
     12 C          -5.4867   -0.6524   -0.1342 C.3     1  LIG1        0.0290
     13 C          -6.3457    0.8118   -2.0409 C.3     1  LIG1       -0.0596
     14 C          -6.9116   -1.6437   -2.0179 C.3     1  LIG1       -0.0596
     15 C          -7.9174   -0.1054   -0.3375 C.3     1  LIG1       -0.0596
     16 C          -4.0916   -0.9454   -0.6886 C.2     1  LIG1        0.2161
     17 C          -1.6785   -1.1509   -0.2684 C.3     1  LIG1        0.0400
     18 C          -1.0292    0.1189   -0.8163 C.ar    1  LIG1       -0.0216
     19 C           0.1902    0.0784   -1.5531 C.ar    1  LIG1       -0.0113
     20 C           0.9286   -1.1872   -1.7973 C.ar    1  LIG1        0.0090
     21 C          -3.1947   -0.9173    1.6858 C.3     1  LIG1        0.0035
     22 C          -1.6306    1.3740   -0.5612 C.ar    1  LIG1       -0.0442
     23 C           2.2116   -1.5097   -1.2979 C.ar    1  LIG1        0.1162
     24 C           0.6853    1.2908   -2.0724 C.ar    1  LIG1       -0.0529
     25 C          -1.0891    2.5773   -1.0272 C.ar    1  LIG1        0.0372
     26 C           0.0725    2.5187   -1.7946 C.ar    1  LIG1       -0.0489
     27 C           0.2966   -2.1761   -2.5857 C.ar    1  LIG1       -0.0521
     28 C           2.7592   -2.7987   -1.4802 C.ar    1  LIG1       -0.0345
     29 C           0.8512   -3.4458   -2.7781 C.ar    1  LIG1       -0.0611
     30 C          -1.7062    3.8632   -0.7135 C.ar    1  LIG1        0.2271
     31 C           2.0723   -3.7659   -2.2062 C.ar    1  LIG1       -0.0599
     32 C           5.0733    1.1423   -1.9752 C.ar    1  LIG1        0.1837
     33 C           6.3169    0.8437   -2.5935 C.ar    1  LIG1        0.0342
     34 C           7.0429    2.0047   -2.4319 C.ar    1  LIG1        0.1390
     35 C           6.7678   -0.4063   -3.2453 C.3     1  LIG1       -0.0330
     36 C          -3.3047    5.1344   -0.0102 C.ar    1  LIG1        0.1125
     37 C          -2.2222    5.8936   -0.3712 C.ar    1  LIG1        0.0663
     38 C           8.3948    2.4304   -2.8412 C.3     1  LIG1       -0.0034
     39 H           3.9836   -0.3998   -2.7274 H       1  LIG1        0.1753
     40 H          -5.7606   -1.4988    0.5088 H       1  LIG1        0.0364
     41 H          -5.4024    0.2426    0.4959 H       1  LIG1        0.0364
     42 H          -5.4909    0.6437   -2.7025 H       1  LIG1        0.0235
     43 H          -6.1324    1.7015   -1.4378 H       1  LIG1        0.0235
     44 H          -7.2062    1.0444   -2.6794 H       1  LIG1        0.0235
     45 H          -6.0869   -1.8623   -2.7019 H       1  LIG1        0.0235
     46 H          -7.8058   -1.4968   -2.6353 H       1  LIG1        0.0235
     47 H          -7.0803   -2.5317   -1.3990 H       1  LIG1        0.0235
     48 H          -7.7881    0.7794    0.2960 H       1  LIG1        0.0235
     49 H          -8.1812   -0.9468    0.3134 H       1  LIG1        0.0235
     50 H          -8.7718    0.0832   -0.9981 H       1  LIG1        0.0235
     51 H          -1.7416   -1.9062   -1.0544 H       1  LIG1        0.0514
     52 H          -1.0509   -1.5561    0.5341 H       1  LIG1        0.0514
     53 H          -4.2271   -0.7790    2.0068 H       1  LIG1        0.0429
     54 H          -2.5926   -0.0872    2.0647 H       1  LIG1        0.0429
     55 H          -2.8281   -1.8553    2.1154 H       1  LIG1        0.0429
     56 H          -2.5441    1.4211    0.0273 H       1  LIG1        0.0628
     57 H           1.5875    1.3084   -2.6784 H       1  LIG1        0.0624
     58 H           0.5241    3.4355   -2.1711 H       1  LIG1        0.0625
     59 H          -0.6661   -1.9628   -3.0488 H       1  LIG1        0.0624
     60 H           3.7374   -3.0544   -1.0752 H       1  LIG1        0.0637
     61 H           0.3131   -4.1846   -3.3678 H       1  LIG1        0.0618
     62 H           2.5007   -4.7558   -2.3425 H       1  LIG1        0.0618
     63 H           6.0001   -1.1849   -3.2150 H       1  LIG1        0.0280
     64 H           7.6537   -0.7992   -2.7345 H       1  LIG1        0.0280
     65 H           7.0267   -0.2262   -4.2929 H       1  LIG1        0.0280
     66 H          -4.2894    5.3377    0.3823 H       1  LIG1        0.1046
     67 H          -2.1134    6.9684   -0.3267 H       1  LIG1        0.0862
     68 H           8.5126    3.5155   -2.7684 H       1  LIG1        0.0309
     69 H           8.5895    2.1422   -3.8794 H       1  LIG1        0.0309
     70 H           9.1518    1.9578   -2.2078 H       1  LIG1        0.0309
@<TRIPOS>BOND
     1     1     3    2
     2     1     4    2
     3     1     8    1
     4     1    23    1
     5     2    16    2
     6     5    30   ar
     7     5    36   ar
     8     6    10   ar
     9     6    34   ar
    10     7    16   am
    11     7    17    1
    12     7    21    1
    13     8    32    1
    14     9    30   ar
    15     9    37   ar
    16    10    32   ar
    17    11    12    1
    18    11    13    1
    19    11    14    1
    20    11    15    1
    21    12    16    1
    22    17    18    1
    23    18    19   ar
    24    18    22   ar
    25    19    20    1
    26    19    24   ar
    27    20    23   ar
    28    20    27   ar
    29    22    25   ar
    30    23    28   ar
    31    24    26   ar
    32    25    26   ar
    33    25    30    1
    34    27    29   ar
    35    28    31   ar
    36    29    31   ar
    37    32    33   ar
    38    33    34   ar
    39    33    35    1
    40    34    38    1
    41    36    37   ar
    42     8    39    1
    43    12    40    1
    44    12    41    1
    45    13    42    1
    46    13    43    1
    47    13    44    1
    48    14    45    1
    49    14    46    1
    50    14    47    1
    51    15    48    1
    52    15    49    1
    53    15    50    1
    54    17    51    1
    55    17    52    1
    56    21    53    1
    57    21    54    1
    58    21    55    1
    59    22    56    1
    60    24    57    1
    61    26    58    1
    62    27    59    1
    63    28    60    1
    64    29    61    1
    65    31    62    1
    66    35    63    1
    67    35    64    1
    68    35    65    1
    69    36    66    1
    70    37    67    1
    71    38    68    1
    72    38    69    1
    73    38    70    1
@<TRIPOS>MOLECULE
156690
 70 73 0 0 0
SMALL
GASTEIGER

@<TRIPOS>ATOM
      1 S           3.3703   -0.3164   -0.6178 S.O2    1  LIG1        0.0741
      2 O          -4.2642   -0.8429   -0.7021 O.2     1  LIG1       -0.2756
      3 O           2.6199    0.6224    0.1729 O.2     1  LIG1       -0.1499
      4 O           4.4698   -1.0653   -0.0444 O.2     1  LIG1       -0.1499
      5 O          -2.7206    3.7742    0.3639 O.2     1  LIG1       -0.4436
      6 O           6.3083    2.9328   -1.7770 O.2     1  LIG1       -0.3578
      7 N          -2.6148   -1.1340    0.8611 N.am    1  LIG1       -0.3002
      8 N           3.9352    0.3689   -2.0615 N.pl3   1  LIG1       -0.1965
      9 N          -1.3820    5.0127   -0.9675 N.ar    1  LIG1       -0.2175
     10 N           5.0611    2.4034   -1.5004 N.ar    1  LIG1       -0.0614
     11 C          -6.1483   -1.5724    1.6222 C.3     1  LIG1       -0.0295
     12 C          -4.9677   -0.5699    1.5617 C.3     1  LIG1        0.0290
     13 C          -5.6572   -3.0291    1.5976 C.3     1  LIG1       -0.0596
     14 C          -6.9155   -1.3387    2.9392 C.3     1  LIG1       -0.0596
     15 C          -7.1272   -1.3434    0.4560 C.3     1  LIG1       -0.0596
     16 C          -3.9285   -0.8736    0.4851 C.2     1  LIG1        0.2161
     17 C          -1.6052   -1.2388   -0.1986 C.3     1  LIG1        0.0400
     18 C          -0.9548    0.0627   -0.6634 C.ar    1  LIG1       -0.0216
     19 C           0.2151    0.0432   -1.4780 C.ar    1  LIG1       -0.0113
     20 C           0.9461   -1.2128   -1.7778 C.ar    1  LIG1        0.0090
     21 C          -2.1187   -1.2084    2.2274 C.3     1  LIG1        0.0035
     22 C          -1.5633    1.3050   -0.3741 C.ar    1  LIG1       -0.0442
     23 C           2.2540   -1.5270   -1.3413 C.ar    1  LIG1        0.1162
     24 C           0.6646    1.2612   -2.0222 C.ar    1  LIG1       -0.0529
     25 C          -1.0640    2.5179   -0.8680 C.ar    1  LIG1        0.0372
     26 C           0.0475    2.4771   -1.7097 C.ar    1  LIG1       -0.0489
     27 C           0.2790   -2.2021   -2.5344 C.ar    1  LIG1       -0.0521
     28 C           2.8054   -2.8073   -1.5671 C.ar    1  LIG1       -0.0345
     29 C           0.8352   -3.4631   -2.7688 C.ar    1  LIG1       -0.0611
     30 C          -1.6819    3.8002   -0.5357 C.ar    1  LIG1        0.2271
     31 C           2.0910   -3.7729   -2.2665 C.ar    1  LIG1       -0.0599
     32 C           5.0679    1.1747   -2.0150 C.ar    1  LIG1        0.1837
     33 C           6.3156    0.8616   -2.6167 C.ar    1  LIG1        0.0342
     34 C           7.0495    2.0172   -2.4526 C.ar    1  LIG1        0.1390
     35 C           6.7618   -0.3974   -3.2546 C.3     1  LIG1       -0.0330
     36 C          -3.0845    5.0792    0.4946 C.ar    1  LIG1        0.1125
     37 C          -2.2694    5.8286   -0.3131 C.ar    1  LIG1        0.0663
     38 C           8.4109    2.4276   -2.8458 C.3     1  LIG1       -0.0034
     39 H           3.9579   -0.3357   -2.7930 H       1  LIG1        0.1753
     40 H          -4.5095   -0.4725    2.5465 H       1  LIG1        0.0364
     41 H          -5.3482    0.4381    1.3440 H       1  LIG1        0.0364
     42 H          -4.9373   -3.2173    2.4013 H       1  LIG1        0.0235
     43 H          -5.1747   -3.2778    0.6463 H       1  LIG1        0.0235
     44 H          -6.4919   -3.7274    1.7273 H       1  LIG1        0.0235
     45 H          -6.2757   -1.5278    3.8090 H       1  LIG1        0.0235
     46 H          -7.7834   -2.0034    3.0177 H       1  LIG1        0.0235
     47 H          -7.2784   -0.3071    3.0080 H       1  LIG1        0.0235
     48 H          -6.6695   -1.5632   -0.5130 H       1  LIG1        0.0235
     49 H          -7.4800   -0.3061    0.4339 H       1  LIG1        0.0235
     50 H          -8.0089   -1.9885    0.5494 H       1  LIG1        0.0235
     51 H          -2.0863   -1.6959   -1.0710 H       1  LIG1        0.0514
     52 H          -0.8383   -1.9378    0.1531 H       1  LIG1        0.0514
     53 H          -2.8945   -1.5197    2.9278 H       1  LIG1        0.0429
     54 H          -1.7247   -0.2308    2.5157 H       1  LIG1        0.0429
     55 H          -1.3213   -1.9569    2.2865 H       1  LIG1        0.0429
     56 H          -2.4572    1.3344    0.2431 H       1  LIG1        0.0628
     57 H           1.5260    1.2911   -2.6844 H       1  LIG1        0.0624
     58 H           0.4553    3.3999   -2.1193 H       1  LIG1        0.0625
     59 H          -0.7113   -1.9957   -2.9424 H       1  LIG1        0.0624
     60 H           3.8035   -3.0562   -1.2101 H       1  LIG1        0.0637
     61 H           0.2759   -4.2050   -3.3342 H       1  LIG1        0.0618
     62 H           2.5219   -4.7577   -2.4340 H       1  LIG1        0.0618
     63 H           5.9870   -1.1687   -3.2245 H       1  LIG1        0.0280
     64 H           7.6398   -0.7936   -2.7332 H       1  LIG1        0.0280
     65 H           7.0306   -0.2273   -4.3013 H       1  LIG1        0.0280
     66 H          -3.8996    5.2893    1.1701 H       1  LIG1        0.1046
     67 H          -2.2715    6.8995   -0.4581 H       1  LIG1        0.0862
     68 H           8.5388    3.5123   -2.7740 H       1  LIG1        0.0309
     69 H           8.6158    2.1350   -3.8811 H       1  LIG1        0.0309
     70 H           9.1550    1.9493   -2.2018 H       1  LIG1        0.0309
@<TRIPOS>BOND
     1     1     3    2
     2     1     4    2
     3     1     8    1
     4     1    23    1
     5     2    16    2
     6     5    30   ar
     7     5    36   ar
     8     6    10   ar
     9     6    34   ar
    10     7    16   am
    11     7    17    1
    12     7    21    1
    13     8    32    1
    14     9    30   ar
    15     9    37   ar
    16    10    32   ar
    17    11    12    1
    18    11    13    1
    19    11    14    1
    20    11    15    1
    21    12    16    1
    22    17    18    1
    23    18    19   ar
    24    18    22   ar
    25    19    20    1
    26    19    24   ar
    27    20    23   ar
    28    20    27   ar
    29    22    25   ar
    30    23    28   ar
    31    24    26   ar
    32    25    26   ar
    33    25    30    1
    34    27    29   ar
    35    28    31   ar
    36    29    31   ar
    37    32    33   ar
    38    33    34   ar
    39    33    35    1
    40    34    38    1
    41    36    37   ar
    42     8    39    1
    43    12    40    1
    44    12    41    1
    45    13    42    1
    46    13    43    1
    47    13    44    1
    48    14    45    1
    49    14    46    1
    50    14    47    1
    51    15    48    1
    52    15    49    1
    53    15    50    1
    54    17    51    1
    55    17    52    1
    56    21    53    1
    57    21    54    1
    58    21    55    1
    59    22    56    1
    60    24    57    1
    61    26    58    1
    62    27    59    1
    63    28    60    1
    64    29    61    1
    65    31    62    1
    66    35    63    1
    67    35    64    1
    68    35    65    1
    69    36    66    1
    70    37    67    1
    71    38    68    1
    72    38    69    1
    73    38    70    1
@<TRIPOS>MOLECULE
156690
 70 73 0 0 0
SMALL
GASTEIGER

@<TRIPOS>ATOM
      1 S           3.3165   -0.2663   -0.5817 S.O2    1  LIG1        0.0741
      2 O          -3.8724   -1.1210   -1.8745 O.2     1  LIG1       -0.2756
      3 O           2.5472    0.7196    0.1384 O.2     1  LIG1       -0.1499
      4 O           4.3944   -0.9943    0.0590 O.2     1  LIG1       -0.1499
      5 O          -1.0231    5.0003   -0.9808 O.2     1  LIG1       -0.4436
      6 O           6.2860    2.9333   -1.7887 O.2     1  LIG1       -0.3578
      7 N          -3.0462   -0.9656    0.2574 N.am    1  LIG1       -0.3002
      8 N           3.9310    0.3481   -2.0382 N.pl3   1  LIG1       -0.1965
      9 N          -2.8127    4.0558    0.0235 N.ar    1  LIG1       -0.2175
     10 N           5.0432    2.3981   -1.5027 N.ar    1  LIG1       -0.0614
     11 C          -6.6296   -0.3917   -1.1507 C.3     1  LIG1       -0.0295
     12 C          -5.4816   -0.6218   -0.1318 C.3     1  LIG1        0.0290
     13 C          -6.3430    0.8203   -2.0536 C.3     1  LIG1       -0.0596
     14 C          -6.8957   -1.6376   -2.0110 C.3     1  LIG1       -0.0596
     15 C          -7.9150   -0.0908   -0.3467 C.3     1  LIG1       -0.0596
     16 C          -4.0828   -0.9224   -0.6783 C.2     1  LIG1        0.2161
     17 C          -1.6753   -1.1362   -0.2378 C.3     1  LIG1        0.0400
     18 C          -1.0219    0.1250   -0.8013 C.ar    1  LIG1       -0.0216
     19 C           0.1821    0.0730   -1.5610 C.ar    1  LIG1       -0.0113
     20 C           0.9229   -1.1925   -1.7899 C.ar    1  LIG1        0.0090
     21 C          -3.2026   -0.8749    1.7029 C.3     1  LIG1        0.0035
     22 C          -1.6024    1.3861   -0.5338 C.ar    1  LIG1       -0.0442
     23 C           2.2108   -1.4967   -1.2909 C.ar    1  LIG1        0.1162
     24 C           0.6672    1.2770   -2.1088 C.ar    1  LIG1       -0.0529
     25 C          -1.0601    2.5837   -1.0138 C.ar    1  LIG1        0.0372
     26 C           0.0709    2.5122   -1.8252 C.ar    1  LIG1       -0.0489
     27 C           0.2944   -2.1982   -2.5560 C.ar    1  LIG1       -0.0521
     28 C           2.7690   -2.7830   -1.4558 C.ar    1  LIG1       -0.0345
     29 C           0.8581   -3.4659   -2.7327 C.ar    1  LIG1       -0.0611
     30 C          -1.6879    3.8483   -0.6415 C.ar    1  LIG1        0.2271
     31 C           2.0867   -3.7673   -2.1628 C.ar    1  LIG1       -0.0599
     32 C           5.0571    1.1631   -2.0017 C.ar    1  LIG1        0.1837
     33 C           6.3060    0.8507   -2.6029 C.ar    1  LIG1        0.0342
     34 C           7.0326    2.0135   -2.4549 C.ar    1  LIG1        0.1390
     35 C           6.7598   -0.4113   -3.2272 C.3     1  LIG1       -0.0330
     36 C          -1.8013    5.9960   -0.4739 C.ar    1  LIG1        0.1125
     37 C          -2.8895    5.4207    0.1289 C.ar    1  LIG1        0.0663
     38 C           8.3900    2.4280   -2.8574 C.3     1  LIG1       -0.0034
     39 H           3.9685   -0.3870   -2.7384 H       1  LIG1        0.1753
     40 H          -5.7567   -1.4592    0.5218 H       1  LIG1        0.0364
     41 H          -5.3998    0.2819    0.4858 H       1  LIG1        0.0364
     42 H          -5.4830    0.6523   -2.7082 H       1  LIG1        0.0235
     43 H          -6.1401    1.7172   -1.4574 H       1  LIG1        0.0235
     44 H          -7.2017    1.0406   -2.6988 H       1  LIG1        0.0235
     45 H          -6.0693   -1.8556   -2.6928 H       1  LIG1        0.0235
     46 H          -7.7908   -1.5020   -2.6299 H       1  LIG1        0.0235
     47 H          -7.0585   -2.5218   -1.3850 H       1  LIG1        0.0235
     48 H          -7.7921    0.7992    0.2809 H       1  LIG1        0.0235
     49 H          -8.1768   -0.9288    0.3095 H       1  LIG1        0.0235
     50 H          -8.7683    0.0887   -1.0112 H       1  LIG1        0.0235
     51 H          -1.7344   -1.9027   -1.0127 H       1  LIG1        0.0514
     52 H          -1.0510   -1.5302    0.5735 H       1  LIG1        0.0514
     53 H          -4.2345   -0.7181    2.0153 H       1  LIG1        0.0429
     54 H          -2.5908   -0.0494    2.0773 H       1  LIG1        0.0429
     55 H          -2.8513   -1.8126    2.1445 H       1  LIG1        0.0429
     56 H          -2.5018    1.4518    0.0759 H       1  LIG1        0.0628
     57 H           1.5530    1.2812   -2.7386 H       1  LIG1        0.0624
     58 H           0.5218    3.4170   -2.2270 H       1  LIG1        0.0625
     59 H          -0.6767   -2.0002   -3.0159 H       1  LIG1        0.0624
     60 H           3.7519   -3.0250   -1.0510 H       1  LIG1        0.0637
     61 H           0.3217   -4.2196   -3.3075 H       1  LIG1        0.0618
     62 H           2.5207   -4.7553   -2.2857 H       1  LIG1        0.0618
     63 H           5.9918   -1.1890   -3.1865 H       1  LIG1        0.0280
     64 H           7.6425   -0.7949   -2.7034 H       1  LIG1        0.0280
     65 H           7.0257   -0.2517   -4.2766 H       1  LIG1        0.0280
     66 H          -1.4508    7.0060   -0.6218 H       1  LIG1        0.1046
     67 H          -3.7121    5.9069    0.6329 H       1  LIG1        0.0862
     68 H           8.5158    3.5127   -2.7859 H       1  LIG1        0.0309
     69 H           8.5875    2.1363   -3.8943 H       1  LIG1        0.0309
     70 H           9.1400    1.9512   -2.2194 H       1  LIG1        0.0309
@<TRIPOS>BOND
     1     1     3    2
     2     1     4    2
     3     1     8    1
     4     1    23    1
     5     2    16    2
     6     5    30   ar
     7     5    36   ar
     8     6    10   ar
     9     6    34   ar
    10     7    16   am
    11     7    17    1
    12     7    21    1
    13     8    32    1
    14     9    30   ar
    15     9    37   ar
    16    10    32   ar
    17    11    12    1
    18    11    13    1
    19    11    14    1
    20    11    15    1
    21    12    16    1
    22    17    18    1
    23    18    19   ar
    24    18    22   ar
    25    19    20    1
    26    19    24   ar
    27    20    23   ar
    28    20    27   ar
    29    22    25   ar
    30    23    28   ar
    31    24    26   ar
    32    25    26   ar
    33    25    30    1
    34    27    29   ar
    35    28    31   ar
    36    29    31   ar
    37    32    33   ar
    38    33    34   ar
    39    33    35    1
    40    34    38    1
    41    36    37   ar
    42     8    39    1
    43    12    40    1
    44    12    41    1
    45    13    42    1
    46    13    43    1
    47    13    44    1
    48    14    45    1
    49    14    46    1
    50    14    47    1
    51    15    48    1
    52    15    49    1
    53    15    50    1
    54    17    51    1
    55    17    52    1
    56    21    53    1
    57    21    54    1
    58    21    55    1
    59    22    56    1
    60    24    57    1
    61    26    58    1
    62    27    59    1
    63    28    60    1
    64    29    61    1
    65    31    62    1
    66    35    63    1
    67    35    64    1
    68    35    65    1
    69    36    66    1
    70    37    67    1
    71    38    68    1
    72    38    69    1
    73    38    70    1
@<TRIPOS>MOLECULE
156690
 70 73 0 0 0
SMALL
GASTEIGER

@<TRIPOS>ATOM
      1 S           2.4703   -0.1476   -3.2440 S.O2    1  LIG1        0.0741
      2 O          -4.9461   -0.5443   -2.4067 O.2     1  LIG1       -0.2756
      3 O           1.2506    0.0918   -3.9901 O.2     1  LIG1       -0.1499
      4 O           3.1485    0.9219   -2.5461 O.2     1  LIG1       -0.1499
      5 O          -2.8308    3.7188   -0.2201 O.2     1  LIG1       -0.4436
      6 O           6.8638   -1.1172   -3.2842 O.2     1  LIG1       -0.3578
      7 N          -3.0977   -1.0394   -1.1540 N.am    1  LIG1       -0.3002
      8 N           3.5610   -0.7494   -4.3988 N.pl3   1  LIG1       -0.1965
      9 N          -0.9531    4.9207    0.1327 N.ar    1  LIG1       -0.2175
     10 N           5.5375   -1.4936   -3.3008 N.ar    1  LIG1       -0.0614
     11 C          -3.2937    0.7018   -4.5335 C.3     1  LIG1       -0.0295
     12 C          -2.8341   -0.4112   -3.5592 C.3     1  LIG1        0.0290
     13 C          -2.1920    0.8671   -5.6023 C.3     1  LIG1       -0.0596
     14 C          -4.6022    0.3435   -5.2549 C.3     1  LIG1       -0.0596
     15 C          -3.4513    2.0409   -3.7930 C.3     1  LIG1       -0.0596
     16 C          -3.7209   -0.6502   -2.3355 C.2     1  LIG1        0.2161
     17 C          -1.6541   -1.2411   -1.0021 C.3     1  LIG1        0.0400
     18 C          -0.8408    0.0183   -0.7155 C.ar    1  LIG1       -0.0216
     19 C           0.5793   -0.0296   -0.6641 C.ar    1  LIG1       -0.0113
     20 C           1.3372   -1.2708   -0.9551 C.ar    1  LIG1        0.0090
     21 C          -3.9125   -1.2623    0.0339 C.3     1  LIG1        0.0035
     22 C          -1.4915    1.2537   -0.4913 C.ar    1  LIG1       -0.0442
     23 C           2.1281   -1.4823   -2.1113 C.ar    1  LIG1        0.1162
     24 C           1.2683    1.1431   -0.3098 C.ar    1  LIG1       -0.0529
     25 C          -0.7858    2.4353   -0.2284 C.ar    1  LIG1        0.0372
     26 C           0.6024    2.3589   -0.1202 C.ar    1  LIG1       -0.0489
     27 C           1.2132   -2.3469   -0.0506 C.ar    1  LIG1       -0.0521
     28 C           2.6660   -2.7522   -2.3816 C.ar    1  LIG1       -0.0345
     29 C           1.7720   -3.5988   -0.3141 C.ar    1  LIG1       -0.0611
     30 C          -1.4638    3.7221   -0.0855 C.ar    1  LIG1        0.2271
     31 C           2.4825   -3.8053   -1.4882 C.ar    1  LIG1       -0.0599
     32 C           4.9220   -0.6343   -4.1152 C.ar    1  LIG1        0.1837
     33 C           5.8280    0.3145   -4.6558 C.ar    1  LIG1        0.0342
     34 C           7.0364   -0.0368   -4.0879 C.ar    1  LIG1        0.1390
     35 C           5.5651    1.4572   -5.5568 C.3     1  LIG1       -0.0330
     36 C          -3.1863    5.0246   -0.0805 C.ar    1  LIG1        0.1125
     37 C          -2.0447    5.7531    0.1314 C.ar    1  LIG1        0.0663
     38 C           8.4042    0.5118   -4.1587 C.3     1  LIG1       -0.0034
     39 H           3.2508   -0.4117   -5.3074 H       1  LIG1        0.1753
     40 H          -1.8213   -0.1528   -3.2427 H       1  LIG1        0.0364
     41 H          -2.7659   -1.3709   -4.0872 H       1  LIG1        0.0364
     42 H          -2.0330   -0.0673   -6.1523 H       1  LIG1        0.0235
     43 H          -1.2370    1.1528   -5.1468 H       1  LIG1        0.0235
     44 H          -2.4549    1.6436   -6.3291 H       1  LIG1        0.0235
     45 H          -4.5411   -0.6491   -5.7143 H       1  LIG1        0.0235
     46 H          -4.8192    1.0647   -6.0515 H       1  LIG1        0.0235
     47 H          -5.4641    0.3524   -4.5821 H       1  LIG1        0.0235
     48 H          -2.5222    2.3215   -3.2844 H       1  LIG1        0.0235
     49 H          -4.2445    1.9994   -3.0395 H       1  LIG1        0.0235
     50 H          -3.7034    2.8488   -4.4889 H       1  LIG1        0.0235
     51 H          -1.2803   -1.7277   -1.9093 H       1  LIG1        0.0514
     52 H          -1.5193   -1.9453   -0.1736 H       1  LIG1        0.0514
     53 H          -4.9614   -0.9978   -0.1225 H       1  LIG1        0.0429
     54 H          -3.5214   -0.6579    0.8577 H       1  LIG1        0.0429
     55 H          -3.8542   -2.3212    0.3030 H       1  LIG1        0.0429
     56 H          -2.5776    1.3080   -0.5456 H       1  LIG1        0.0628
     57 H           2.3534    1.1345   -0.2094 H       1  LIG1        0.0624
     58 H           1.1842    3.2539    0.0952 H       1  LIG1        0.0625
     59 H           0.6521   -2.2163    0.8745 H       1  LIG1        0.0624
     60 H           3.2417   -2.9470   -3.2824 H       1  LIG1        0.0637
     61 H           1.6424   -4.4132    0.3944 H       1  LIG1        0.0618
     62 H           2.9119   -4.7812   -1.7044 H       1  LIG1        0.0618
     63 H           4.5146    1.5064   -5.8574 H       1  LIG1        0.0280
     64 H           6.1741    1.3809   -6.4631 H       1  LIG1        0.0280
     65 H           5.8135    2.3989   -5.0555 H       1  LIG1        0.0280
     66 H          -4.2390    5.2518   -0.1577 H       1  LIG1        0.1046
     67 H          -1.9489    6.8187    0.2795 H       1  LIG1        0.0862
     68 H           9.1213   -0.1339   -3.6417 H       1  LIG1        0.0309
     69 H           8.4421    1.5013   -3.6925 H       1  LIG1        0.0309
     70 H           8.7271    0.6082   -5.1999 H       1  LIG1        0.0309
@<TRIPOS>BOND
     1     1     3    2
     2     1     4    2
     3     1     8    1
     4     1    23    1
     5     2    16    2
     6     5    30   ar
     7     5    36   ar
     8     6    10   ar
     9     6    34   ar
    10     7    16   am
    11     7    17    1
    12     7    21    1
    13     8    32    1
    14     9    30   ar
    15     9    37   ar
    16    10    32   ar
    17    11    12    1
    18    11    13    1
    19    11    14    1
    20    11    15    1
    21    12    16    1
    22    17    18    1
    23    18    19   ar
    24    18    22   ar
    25    19    20    1
    26    19    24   ar
    27    20    23   ar
    28    20    27   ar
    29    22    25   ar
    30    23    28   ar
    31    24    26   ar
    32    25    26   ar
    33    25    30    1
    34    27    29   ar
    35    28    31   ar
    36    29    31   ar
    37    32    33   ar
    38    33    34   ar
    39    33    35    1
    40    34    38    1
    41    36    37   ar
    42     8    39    1
    43    12    40    1
    44    12    41    1
    45    13    42    1
    46    13    43    1
    47    13    44    1
    48    14    45    1
    49    14    46    1
    50    14    47    1
    51    15    48    1
    52    15    49    1
    53    15    50    1
    54    17    51    1
    55    17    52    1
    56    21    53    1
    57    21    54    1
    58    21    55    1
    59    22    56    1
    60    24    57    1
    61    26    58    1
    62    27    59    1
    63    28    60    1
    64    29    61    1
    65    31    62    1
    66    35    63    1
    67    35    64    1
    68    35    65    1
    69    36    66    1
    70    37    67    1
    71    38    68    1
    72    38    69    1
    73    38    70    1
@<TRIPOS>MOLECULE
156690
 70 73 0 0 0
SMALL
GASTEIGER

@<TRIPOS>ATOM
      1 S           3.2237   -0.4976   -0.4886 S.O2    1  LIG1        0.0741
      2 O          -3.9406   -1.1113   -1.8921 O.2     1  LIG1       -0.2756
      3 O           2.4164    0.3361    0.3771 O.2     1  LIG1       -0.1499
      4 O           4.3155   -1.2559    0.0951 O.2     1  LIG1       -0.1499
      5 O          -2.9101    3.8197   -0.2676 O.2     1  LIG1       -0.4436
      6 O           5.2107   -1.1924   -4.4291 O.2     1  LIG1       -0.3578
      7 N          -3.0525   -0.9952    0.2204 N.am    1  LIG1       -0.3002
      8 N           3.9143    0.5145   -1.6547 N.pl3   1  LIG1       -0.1965
      9 N          -1.1051    5.0398   -0.8615 N.ar    1  LIG1       -0.2175
     10 N           4.1798   -0.8639   -3.5794 N.ar    1  LIG1       -0.0614
     11 C          -6.6754   -0.4258   -1.0859 C.3     1  LIG1       -0.0295
     12 C          -5.4980   -0.6429   -0.0988 C.3     1  LIG1        0.0290
     13 C          -7.9386   -0.1192   -0.2484 C.3     1  LIG1       -0.0596
     14 C          -6.4219    0.7769   -2.0109 C.3     1  LIG1       -0.0596
     15 C          -6.9628   -1.6826   -1.9233 C.3     1  LIG1       -0.0596
     16 C          -4.1172   -0.9383   -0.6877 C.2     1  LIG1        0.2161
     17 C          -1.6965   -1.1852   -0.3152 C.3     1  LIG1        0.0400
     18 C          -1.0265    0.0750   -0.8591 C.ar    1  LIG1       -0.0216
     19 C           0.1809    0.0109   -1.6107 C.ar    1  LIG1       -0.0113
     20 C           0.8865   -1.2646   -1.8774 C.ar    1  LIG1        0.0090
     21 C          -3.1676   -0.9268    1.6712 C.3     1  LIG1        0.0035
     22 C          -1.5965    1.3411   -0.5955 C.ar    1  LIG1       -0.0442
     23 C           2.1644   -1.6145   -1.3889 C.ar    1  LIG1        0.1162
     24 C           0.7008    1.2100   -2.1353 C.ar    1  LIG1       -0.0529
     25 C          -1.0344    2.5325   -1.0700 C.ar    1  LIG1        0.0372
     26 C           0.1164    2.4505   -1.8542 C.ar    1  LIG1       -0.0489
     27 C           0.2356   -2.2254   -2.6842 C.ar    1  LIG1       -0.0521
     28 C           2.6889   -2.9080   -1.6023 C.ar    1  LIG1       -0.0345
     29 C           0.7698   -3.4985   -2.9090 C.ar    1  LIG1       -0.0611
     30 C          -1.6251    3.8301   -0.7543 C.ar    1  LIG1        0.2271
     31 C           1.9912   -3.8454   -2.3528 C.ar    1  LIG1       -0.0599
     32 C           4.6955   -0.0417   -2.6641 C.ar    1  LIG1        0.1837
     33 C           6.0680    0.2184   -2.9220 C.ar    1  LIG1        0.0342
     34 C           6.3391   -0.5518   -4.0362 C.ar    1  LIG1        0.1390
     35 C           7.0258    1.0544   -2.1666 C.3     1  LIG1       -0.0330
     36 C          -3.2010    5.1320   -0.0571 C.ar    1  LIG1        0.1125
     37 C          -2.0993    5.8691   -0.4061 C.ar    1  LIG1        0.0663
     38 C           7.5504   -0.8192   -4.8359 C.3     1  LIG1       -0.0034
     39 H           4.2433    1.3651   -1.2074 H       1  LIG1        0.1753
     40 H          -5.7495   -1.4777    0.5675 H       1  LIG1        0.0364
     41 H          -5.4014    0.2644    0.5107 H       1  LIG1        0.0364
     42 H          -7.8013    0.7801    0.3629 H       1  LIG1        0.0235
     43 H          -8.1776   -0.9488    0.4266 H       1  LIG1        0.0235
     44 H          -8.8119    0.0479   -0.8899 H       1  LIG1        0.0235
     45 H          -6.1973    1.6798   -1.4317 H       1  LIG1        0.0235
     46 H          -7.3031    0.9911   -2.6272 H       1  LIG1        0.0235
     47 H          -5.5868    0.6023   -2.6952 H       1  LIG1        0.0235
     48 H          -7.1117   -2.5583   -1.2819 H       1  LIG1        0.0235
     49 H          -6.1518   -1.9107   -2.6202 H       1  LIG1        0.0235
     50 H          -7.8717   -1.5547   -2.5234 H       1  LIG1        0.0235
     51 H          -1.7910   -1.9280   -1.1104 H       1  LIG1        0.0514
     52 H          -1.0660   -1.6157    0.4712 H       1  LIG1        0.0514
     53 H          -4.1842   -0.7298    2.0114 H       1  LIG1        0.0429
     54 H          -2.5120   -0.1366    2.0440 H       1  LIG1        0.0429
     55 H          -2.8484   -1.8882    2.0844 H       1  LIG1        0.0429
     56 H          -2.5032    1.4069    0.0016 H       1  LIG1        0.0628
     57 H           1.5828    1.1896   -2.7725 H       1  LIG1        0.0624
     58 H           0.5687    3.3565   -2.2530 H       1  LIG1        0.0625
     59 H          -0.7274   -1.9852   -3.1407 H       1  LIG1        0.0624
     60 H           3.6682   -3.1820   -1.2123 H       1  LIG1        0.0637
     61 H           0.2248   -4.2137   -3.5196 H       1  LIG1        0.0618
     62 H           2.4143   -4.8317   -2.5241 H       1  LIG1        0.0618
     63 H           6.5318    1.6386   -1.3858 H       1  LIG1        0.0280
     64 H           7.5381    1.7528   -2.8367 H       1  LIG1        0.0280
     65 H           7.7824    0.4231   -1.6887 H       1  LIG1        0.0280
     66 H          -4.1844    5.3545    0.3277 H       1  LIG1        0.1046
     67 H          -1.9696    6.9415   -0.3570 H       1  LIG1        0.0862
     68 H           7.3154   -1.4006   -5.7332 H       1  LIG1        0.0309
     69 H           8.2773   -1.3866   -4.2466 H       1  LIG1        0.0309
     70 H           8.0183    0.1173   -5.1540 H       1  LIG1        0.0309
@<TRIPOS>BOND
     1     1     3    2
     2     1     4    2
     3     1     8    1
     4     1    23    1
     5     2    16    2
     6     5    30   ar
     7     5    36   ar
     8     6    10   ar
     9     6    34   ar
    10     7    16   am
    11     7    17    1
    12     7    21    1
    13     8    32    1
    14     9    30   ar
    15     9    37   ar
    16    10    32   ar
    17    11    12    1
    18    11    13    1
    19    11    14    1
    20    11    15    1
    21    12    16    1
    22    17    18    1
    23    18    19   ar
    24    18    22   ar
    25    19    20    1
    26    19    24   ar
    27    20    23   ar
    28    20    27   ar
    29    22    25   ar
    30    23    28   ar
    31    24    26   ar
    32    25    26   ar
    33    25    30    1
    34    27    29   ar
    35    28    31   ar
    36    29    31   ar
    37    32    33   ar
    38    33    34   ar
    39    33    35    1
    40    34    38    1
    41    36    37   ar
    42     8    39    1
    43    12    40    1
    44    12    41    1
    45    13    42    1
    46    13    43    1
    47    13    44    1
    48    14    45    1
    49    14    46    1
    50    14    47    1
    51    15    48    1
    52    15    49    1
    53    15    50    1
    54    17    51    1
    55    17    52    1
    56    21    53    1
    57    21    54    1
    58    21    55    1
    59    22    56    1
    60    24    57    1
    61    26    58    1
    62    27    59    1
    63    28    60    1
    64    29    61    1
    65    31    62    1
    66    35    63    1
    67    35    64    1
    68    35    65    1
    69    36    66    1
    70    37    67    1
    71    38    68    1
    72    38    69    1
    73    38    70    1
@<TRIPOS>MOLECULE
156690
 70 73 0 0 0
SMALL
GASTEIGER

@<TRIPOS>ATOM
      1 S           2.2858   -0.2028   -3.4444 S.O2    1  LIG1        0.0741
      2 O          -4.8964   -0.9161   -2.4733 O.2     1  LIG1       -0.2756
      3 O           1.0724   -0.1177   -4.2196 O.2     1  LIG1       -0.1499
      4 O           2.8831    0.9602   -2.8146 O.2     1  LIG1       -0.1499
      5 O          -2.8655    3.7626   -0.2421 O.2     1  LIG1       -0.4436
      6 O           2.8633   -1.6006   -7.7138 O.2     1  LIG1       -0.3578
      7 N          -3.0964   -1.0583   -1.0724 N.am    1  LIG1       -0.3002
      8 N           3.5772   -0.7790   -4.3823 N.pl3   1  LIG1       -0.1965
      9 N          -0.9835    4.9754    0.0465 N.ar    1  LIG1       -0.2175
     10 N           2.7665   -1.8424   -6.3565 N.ar    1  LIG1       -0.0614
     11 C          -3.3110   -0.6208   -4.9161 C.3     1  LIG1       -0.0295
     12 C          -2.7302   -0.5373   -3.4830 C.3     1  LIG1        0.0290
     13 C          -2.1617   -0.3059   -5.8988 C.3     1  LIG1       -0.0596
     14 C          -3.8233   -2.0395   -5.2167 C.3     1  LIG1       -0.0596
     15 C          -4.4290    0.4075   -5.1529 C.3     1  LIG1       -0.0596
     16 C          -3.6757   -0.8711   -2.3252 C.2     1  LIG1        0.2161
     17 C          -1.6605   -1.2246   -0.8415 C.3     1  LIG1        0.0400
     18 C          -0.8563    0.0608   -0.7098 C.ar    1  LIG1       -0.0216
     19 C           0.5660    0.0335   -0.7334 C.ar    1  LIG1       -0.0113
     20 C           1.3290   -1.2066   -1.0116 C.ar    1  LIG1        0.0090
     21 C          -3.9689   -1.3064    0.0677 C.3     1  LIG1        0.0035
     22 C          -1.5161    1.2923   -0.4902 C.ar    1  LIG1       -0.0442
     23 C           2.0506   -1.4617   -2.2023 C.ar    1  LIG1        0.1162
     24 C           1.2532    1.2253   -0.4521 C.ar    1  LIG1       -0.0529
     25 C          -0.8141    2.4901   -0.3015 C.ar    1  LIG1        0.0372
     26 C           0.5796    2.4355   -0.2640 C.ar    1  LIG1       -0.0489
     27 C           1.2806   -2.2424   -0.0521 C.ar    1  LIG1       -0.0521
     28 C           2.6107   -2.7324   -2.4421 C.ar    1  LIG1       -0.0345
     29 C           1.8485   -3.4951   -0.2917 C.ar    1  LIG1       -0.0611
     30 C          -1.4961    3.7731   -0.1493 C.ar    1  LIG1        0.2271
     31 C           2.4986   -3.7450   -1.4931 C.ar    1  LIG1       -0.0599
     32 C           3.3998   -0.8287   -5.7639 C.ar    1  LIG1        0.1837
     33 C           3.9502    0.0770   -6.7082 C.ar    1  LIG1        0.0342
     34 C           3.5724   -0.4603   -7.9213 C.ar    1  LIG1        0.1390
     35 C           4.7253    1.3176   -6.4830 C.3     1  LIG1       -0.0330
     36 C          -3.2219    5.0687   -0.1017 C.ar    1  LIG1        0.1125
     37 C          -2.0775    5.8027    0.0725 C.ar    1  LIG1        0.0663
     38 C           3.7788   -0.0574   -9.3257 C.3     1  LIG1       -0.0034
     39 H           4.3721   -0.2057   -4.1046 H       1  LIG1        0.1753
     40 H          -2.3586    0.4796   -3.3042 H       1  LIG1        0.0364
     41 H          -1.8727   -1.2136   -3.4459 H       1  LIG1        0.0364
     42 H          -1.3371   -1.0190   -5.7856 H       1  LIG1        0.0235
     43 H          -1.7597    0.6991   -5.7260 H       1  LIG1        0.0235
     44 H          -2.5018   -0.3555   -6.9382 H       1  LIG1        0.0235
     45 H          -3.0438   -2.7871   -5.0267 H       1  LIG1        0.0235
     46 H          -4.1274   -2.1355   -6.2639 H       1  LIG1        0.0235
     47 H          -4.6903   -2.3017   -4.6022 H       1  LIG1        0.0235
     48 H          -4.1014    1.4168   -4.8806 H       1  LIG1        0.0235
     49 H          -5.3322    0.1819   -4.5793 H       1  LIG1        0.0235
     50 H          -4.7234    0.4276   -6.2085 H       1  LIG1        0.0235
     51 H          -1.2576   -1.8513   -1.6408 H       1  LIG1        0.0514
     52 H          -1.5461   -1.7902    0.0916 H       1  LIG1        0.0514
     53 H          -5.0013   -1.0054   -0.1300 H       1  LIG1        0.0429
     54 H          -3.6035   -0.7433    0.9318 H       1  LIG1        0.0429
     55 H          -3.9501   -2.3768    0.2945 H       1  LIG1        0.0429
     56 H          -2.6049    1.3225   -0.4794 H       1  LIG1        0.0628
     57 H           2.3418    1.2345   -0.4067 H       1  LIG1        0.0624
     58 H           1.1576    3.3445   -0.1032 H       1  LIG1        0.0625
     59 H           0.7633   -2.0821    0.8926 H       1  LIG1        0.0624
     60 H           3.1187   -2.9597   -3.3768 H       1  LIG1        0.0637
     61 H           1.7664   -4.2814    0.4556 H       1  LIG1        0.0618
     62 H           2.9226   -4.7263   -1.6928 H       1  LIG1        0.0618
     63 H           4.8332    1.5472   -5.4194 H       1  LIG1        0.0280
     64 H           4.2257    2.1701   -6.9567 H       1  LIG1        0.0280
     65 H           5.7279    1.2262   -6.9124 H       1  LIG1        0.0280
     66 H          -4.2774    5.2903   -0.1518 H       1  LIG1        0.1046
     67 H          -1.9816    6.8701    0.2112 H       1  LIG1        0.0862
     68 H           3.4273   -0.8272  -10.0194 H       1  LIG1        0.0309
     69 H           4.8420    0.1141   -9.5224 H       1  LIG1        0.0309
     70 H           3.2367    0.8686   -9.5396 H       1  LIG1        0.0309
@<TRIPOS>BOND
     1     1     3    2
     2     1     4    2
     3     1     8    1
     4     1    23    1
     5     2    16    2
     6     5    30   ar
     7     5    36   ar
     8     6    10   ar
     9     6    34   ar
    10     7    16   am
    11     7    17    1
    12     7    21    1
    13     8    32    1
    14     9    30   ar
    15     9    37   ar
    16    10    32   ar
    17    11    12    1
    18    11    13    1
    19    11    14    1
    20    11    15    1
    21    12    16    1
    22    17    18    1
    23    18    19   ar
    24    18    22   ar
    25    19    20    1
    26    19    24   ar
    27    20    23   ar
    28    20    27   ar
    29    22    25   ar
    30    23    28   ar
    31    24    26   ar
    32    25    26   ar
    33    25    30    1
    34    27    29   ar
    35    28    31   ar
    36    29    31   ar
    37    32    33   ar
    38    33    34   ar
    39    33    35    1
    40    34    38    1
    41    36    37   ar
    42     8    39    1
    43    12    40    1
    44    12    41    1
    45    13    42    1
    46    13    43    1
    47    13    44    1
    48    14    45    1
    49    14    46    1
    50    14    47    1
    51    15    48    1
    52    15    49    1
    53    15    50    1
    54    17    51    1
    55    17    52    1
    56    21    53    1
    57    21    54    1
    58    21    55    1
    59    22    56    1
    60    24    57    1
    61    26    58    1
    62    27    59    1
    63    28    60    1
    64    29    61    1
    65    31    62    1
    66    35    63    1
    67    35    64    1
    68    35    65    1
    69    36    66    1
    70    37    67    1
    71    38    68    1
    72    38    69    1
    73    38    70    1
@<TRIPOS>MOLECULE
156690
 70 73 0 0 0
SMALL
GASTEIGER

@<TRIPOS>ATOM
      1 S           2.4796   -0.1567   -3.3699 S.O2    1  LIG1        0.0741
      2 O          -4.9161   -0.9158   -2.4348 O.2     1  LIG1       -0.2756
      3 O           1.2731    0.0856   -4.1333 O.2     1  LIG1       -0.1499
      4 O           3.1716    0.9225   -2.6999 O.2     1  LIG1       -0.1499
      5 O          -0.8626    4.9093   -0.5701 O.2     1  LIG1       -0.4436
      6 O           6.8689   -1.1909   -3.3667 O.2     1  LIG1       -0.3578
      7 N          -3.1270   -1.0192   -1.0134 N.am    1  LIG1       -0.3002
      8 N           3.5719   -0.8059   -4.4980 N.pl3   1  LIG1       -0.1965
      9 N          -2.7619    3.9743    0.2174 N.ar    1  LIG1       -0.2175
     10 N           5.5470   -1.5811   -3.4170 N.ar    1  LIG1       -0.0614
     11 C          -3.3094   -0.6121   -4.8609 C.3     1  LIG1       -0.0295
     12 C          -2.7468   -0.5085   -3.4220 C.3     1  LIG1        0.0290
     13 C          -2.1516   -0.2918   -5.8313 C.3     1  LIG1       -0.0596
     14 C          -3.8021   -2.0392   -5.1552 C.3     1  LIG1       -0.0596
     15 C          -4.4360    0.4013   -5.1193 C.3     1  LIG1       -0.0596
     16 C          -3.6980   -0.8495   -2.2732 C.2     1  LIG1        0.2161
     17 C          -1.6931   -1.2004   -0.7752 C.3     1  LIG1        0.0400
     18 C          -0.8638    0.0741   -0.6953 C.ar    1  LIG1       -0.0216
     19 C           0.5585    0.0374   -0.7738 C.ar    1  LIG1       -0.0113
     20 C           1.3142   -1.2142   -1.0512 C.ar    1  LIG1        0.0090
     21 C          -4.0085   -1.2579    0.1210 C.3     1  LIG1        0.0035
     22 C          -1.5093    1.3107   -0.4634 C.ar    1  LIG1       -0.0442
     23 C           2.1029   -1.4564   -2.2064 C.ar    1  LIG1        0.1162
     24 C           1.2547    1.2362   -0.5403 C.ar    1  LIG1       -0.0529
     25 C          -0.7990    2.5108   -0.3438 C.ar    1  LIG1        0.0372
     26 C           0.5931    2.4566   -0.3671 C.ar    1  LIG1       -0.0489
     27 C           1.1942   -2.2749   -0.1257 C.ar    1  LIG1       -0.0521
     28 C           2.6246   -2.7394   -2.4543 C.ar    1  LIG1       -0.0345
     29 C           1.7358   -3.5390   -0.3696 C.ar    1  LIG1       -0.0611
     30 C          -1.5227    3.7674   -0.1899 C.ar    1  LIG1        0.2271
     31 C           2.4338   -3.7760   -1.5438 C.ar    1  LIG1       -0.0599
     32 C           4.9318   -0.6932   -4.1984 C.ar    1  LIG1        0.1837
     33 C           5.8346    0.2860   -4.6903 C.ar    1  LIG1        0.0342
     34 C           7.0392   -0.0747   -4.1205 C.ar    1  LIG1        0.1390
     35 C           5.5702    1.4621   -5.5465 C.3     1  LIG1       -0.0330
     36 C          -1.7793    5.8994   -0.3876 C.ar    1  LIG1        0.1125
     37 C          -2.9263    5.3311    0.1026 C.ar    1  LIG1        0.0663
     38 C           8.4014    0.4941   -4.1476 C.3     1  LIG1       -0.0034
     39 H           3.2786   -0.4830   -5.4158 H       1  LIG1        0.1753
     40 H          -2.3957    0.5159   -3.2477 H       1  LIG1        0.0364
     41 H          -1.8767   -1.1690   -3.3698 H       1  LIG1        0.0364
     42 H          -1.3184   -0.9916   -5.6993 H       1  LIG1        0.0235
     43 H          -1.7660    0.7205   -5.6643 H       1  LIG1        0.0235
     44 H          -2.4770   -0.3574   -6.8753 H       1  LIG1        0.0235
     45 H          -3.0178   -2.7763   -4.9487 H       1  LIG1        0.0235
     46 H          -4.0910   -2.1472   -6.2065 H       1  LIG1        0.0235
     47 H          -4.6750   -2.3051   -4.5512 H       1  LIG1        0.0235
     48 H          -4.1221    1.4169   -4.8545 H       1  LIG1        0.0235
     49 H          -5.3423    0.1720   -4.5519 H       1  LIG1        0.0235
     50 H          -4.7203    0.4076   -6.1781 H       1  LIG1        0.0235
     51 H          -1.3072   -1.8654   -1.5521 H       1  LIG1        0.0514
     52 H          -1.5886   -1.7291    0.1799 H       1  LIG1        0.0514
     53 H          -5.0364   -0.9469   -0.0845 H       1  LIG1        0.0429
     54 H          -3.6434   -0.6965    0.9865 H       1  LIG1        0.0429
     55 H          -4.0012   -2.3280    0.3491 H       1  LIG1        0.0429
     56 H          -2.5968    1.3544   -0.3970 H       1  LIG1        0.0628
     57 H           2.3429    1.2421   -0.5047 H       1  LIG1        0.0624
     58 H           1.1847    3.3619   -0.2468 H       1  LIG1        0.0625
     59 H           0.6493   -2.1239    0.8058 H       1  LIG1        0.0624
     60 H           3.1949   -2.9592   -3.3533 H       1  LIG1        0.0637
     61 H           1.6014   -4.3385    0.3547 H       1  LIG1        0.0618
     62 H           2.8490   -4.7609   -1.7467 H       1  LIG1        0.0618
     63 H           4.5187    1.5239   -5.8408 H       1  LIG1        0.0280
     64 H           6.1762    1.4188   -6.4574 H       1  LIG1        0.0280
     65 H           5.8222    2.3844   -5.0116 H       1  LIG1        0.0280
     66 H          -1.4680    6.9007   -0.6456 H       1  LIG1        0.1046
     67 H          -3.8542    5.8167    0.3691 H       1  LIG1        0.0862
     68 H           9.1125   -0.1457   -3.6153 H       1  LIG1        0.0309
     69 H           8.4117    1.4795   -3.6721 H       1  LIG1        0.0309
     70 H           8.7518    0.6041   -5.1779 H       1  LIG1        0.0309
@<TRIPOS>BOND
     1     1     3    2
     2     1     4    2
     3     1     8    1
     4     1    23    1
     5     2    16    2
     6     5    30   ar
     7     5    36   ar
     8     6    10   ar
     9     6    34   ar
    10     7    16   am
    11     7    17    1
    12     7    21    1
    13     8    32    1
    14     9    30   ar
    15     9    37   ar
    16    10    32   ar
    17    11    12    1
    18    11    13    1
    19    11    14    1
    20    11    15    1
    21    12    16    1
    22    17    18    1
    23    18    19   ar
    24    18    22   ar
    25    19    20    1
    26    19    24   ar
    27    20    23   ar
    28    20    27   ar
    29    22    25   ar
    30    23    28   ar
    31    24    26   ar
    32    25    26   ar
    33    25    30    1
    34    27    29   ar
    35    28    31   ar
    36    29    31   ar
    37    32    33   ar
    38    33    34   ar
    39    33    35    1
    40    34    38    1
    41    36    37   ar
    42     8    39    1
    43    12    40    1
    44    12    41    1
    45    13    42    1
    46    13    43    1
    47    13    44    1
    48    14    45    1
    49    14    46    1
    50    14    47    1
    51    15    48    1
    52    15    49    1
    53    15    50    1
    54    17    51    1
    55    17    52    1
    56    21    53    1
    57    21    54    1
    58    21    55    1
    59    22    56    1
    60    24    57    1
    61    26    58    1
    62    27    59    1
    63    28    60    1
    64    29    61    1
    65    31    62    1
    66    35    63    1
    67    35    64    1
    68    35    65    1
    69    36    66    1
    70    37    67    1
    71    38    68    1
    72    38    69    1
    73    38    70    1
@<TRIPOS>MOLECULE
156690
 70 73 0 0 0
SMALL
GASTEIGER

@<TRIPOS>ATOM
      1 S           2.4212   -0.1443   -3.3134 S.O2    1  LIG1        0.0741
      2 O          -4.9105   -0.9106   -2.4766 O.2     1  LIG1       -0.2756
      3 O           1.2012    0.0675   -4.0677 O.2     1  LIG1       -0.1499
      4 O           3.0903    0.9490   -2.6428 O.2     1  LIG1       -0.1499
      5 O          -2.8706    3.7607   -0.2387 O.2     1  LIG1       -0.4436
      6 O           6.8157   -1.1303   -3.3020 O.2     1  LIG1       -0.3578
      7 N          -3.1127   -1.0515   -1.0722 N.am    1  LIG1       -0.3002
      8 N           3.5234   -0.7630   -4.4492 N.pl3   1  LIG1       -0.1965
      9 N          -0.9888    4.9719    0.0569 N.ar    1  LIG1       -0.2175
     10 N           5.4905   -1.5096   -3.3357 N.ar    1  LIG1       -0.0614
     11 C          -3.3227   -0.6099   -4.9146 C.3     1  LIG1       -0.0295
     12 C          -2.7455   -0.5209   -3.4798 C.3     1  LIG1        0.0290
     13 C          -2.1726   -0.2899   -5.8941 C.3     1  LIG1       -0.0596
     14 C          -3.8269   -2.0319   -5.2139 C.3     1  LIG1       -0.0596
     15 C          -4.4459    0.4116   -5.1555 C.3     1  LIG1       -0.0596
     16 C          -3.6900   -0.8621   -2.3254 C.2     1  LIG1        0.2161
     17 C          -1.6771   -1.2238   -0.8403 C.3     1  LIG1        0.0400
     18 C          -0.8665    0.0568   -0.6977 C.ar    1  LIG1       -0.0216
     19 C           0.5563    0.0222   -0.7045 C.ar    1  LIG1       -0.0113
     20 C           1.3181   -1.2215   -0.9838 C.ar    1  LIG1        0.0090
     21 C          -3.9866   -1.2982    0.0665 C.3     1  LIG1        0.0035
     22 C          -1.5243    1.2903   -0.4850 C.ar    1  LIG1       -0.0442
     23 C           2.0880   -1.4554   -2.1506 C.ar    1  LIG1        0.1162
     24 C           1.2439    1.2110   -0.4094 C.ar    1  LIG1       -0.0529
     25 C          -0.8204    2.4851   -0.2851 C.ar    1  LIG1        0.0372
     26 C           0.5721    2.4242   -0.2284 C.ar    1  LIG1       -0.0489
     27 C           1.2162   -2.2815   -0.0564 C.ar    1  LIG1       -0.0521
     28 C           2.6177   -2.7321   -2.4088 C.ar    1  LIG1       -0.0345
     29 C           1.7683   -3.5389   -0.3083 C.ar    1  LIG1       -0.0611
     30 C          -1.5010    3.7698   -0.1391 C.ar    1  LIG1        0.2271
     31 C           2.4519   -3.7691   -1.4936 C.ar    1  LIG1       -0.0599
     32 C           4.8816   -0.6463   -4.1510 C.ar    1  LIG1        0.1837
     33 C           5.7914    0.3078   -4.6753 C.ar    1  LIG1        0.0342
     34 C           6.9946   -0.0446   -4.0970 C.ar    1  LIG1        0.1390
     35 C           5.5357    1.4563   -5.5712 C.3     1  LIG1       -0.0330
     36 C          -3.2264    5.0671   -0.1003 C.ar    1  LIG1        0.1125
     37 C          -2.0821    5.8000    0.0781 C.ar    1  LIG1        0.0663
     38 C           8.3624    0.5072   -4.1500 C.3     1  LIG1       -0.0034
     39 H           3.2245   -0.4359   -5.3652 H       1  LIG1        0.1753
     40 H          -2.3825    0.4990   -3.3008 H       1  LIG1        0.0364
     41 H          -1.8816   -1.1898   -3.4420 H       1  LIG1        0.0364
     42 H          -1.3420   -0.9951   -5.7748 H       1  LIG1        0.0235
     43 H          -1.7797    0.7193   -5.7247 H       1  LIG1        0.0235
     44 H          -2.5086   -0.3469   -6.9354 H       1  LIG1        0.0235
     45 H          -3.0447   -2.7752   -5.0220 H       1  LIG1        0.0235
     46 H          -4.1284   -2.1303   -6.2627 H       1  LIG1        0.0235
     47 H          -4.6944   -2.2975   -4.6019 H       1  LIG1        0.0235
     48 H          -4.1244    1.4233   -4.8846 H       1  LIG1        0.0235
     49 H          -5.3491    0.1823   -4.5836 H       1  LIG1        0.0235
     50 H          -4.7381    0.4283   -6.2120 H       1  LIG1        0.0235
     51 H          -1.2743   -1.8465   -1.6431 H       1  LIG1        0.0514
     52 H          -1.5696   -1.7959    0.0894 H       1  LIG1        0.0514
     53 H          -5.0176   -0.9934   -0.1319 H       1  LIG1        0.0429
     54 H          -3.6199   -0.7373    0.9315 H       1  LIG1        0.0429
     55 H          -3.9713   -2.3689    0.2918 H       1  LIG1        0.0429
     56 H          -2.6129    1.3252   -0.4868 H       1  LIG1        0.0628
     57 H           2.3312    1.2157   -0.3406 H       1  LIG1        0.0624
     58 H           1.1525    3.3296   -0.0558 H       1  LIG1        0.0625
     59 H           0.6770   -2.1343    0.8789 H       1  LIG1        0.0624
     60 H           3.1747   -2.9445   -3.3177 H       1  LIG1        0.0637
     61 H           1.6533   -4.3399    0.4178 H       1  LIG1        0.0618
     62 H           2.8752   -4.7491   -1.7012 H       1  LIG1        0.0618
     63 H           4.4857    1.5122   -5.8720 H       1  LIG1        0.0280
     64 H           6.1451    1.3806   -6.4772 H       1  LIG1        0.0280
     65 H           5.7887    2.3945   -5.0654 H       1  LIG1        0.0280
     66 H          -4.2817    5.2898   -0.1541 H       1  LIG1        0.1046
     67 H          -1.9856    6.8676    0.2166 H       1  LIG1        0.0862
     68 H           9.0749   -0.1398   -3.6281 H       1  LIG1        0.0309
     69 H           8.3933    1.4945   -3.6791 H       1  LIG1        0.0309
     70 H           8.6967    0.6085   -5.1870 H       1  LIG1        0.0309
@<TRIPOS>BOND
     1     1     3    2
     2     1     4    2
     3     1     8    1
     4     1    23    1
     5     2    16    2
     6     5    30   ar
     7     5    36   ar
     8     6    10   ar
     9     6    34   ar
    10     7    16   am
    11     7    17    1
    12     7    21    1
    13     8    32    1
    14     9    30   ar
    15     9    37   ar
    16    10    32   ar
    17    11    12    1
    18    11    13    1
    19    11    14    1
    20    11    15    1
    21    12    16    1
    22    17    18    1
    23    18    19   ar
    24    18    22   ar
    25    19    20    1
    26    19    24   ar
    27    20    23   ar
    28    20    27   ar
    29    22    25   ar
    30    23    28   ar
    31    24    26   ar
    32    25    26   ar
    33    25    30    1
    34    27    29   ar
    35    28    31   ar
    36    29    31   ar
    37    32    33   ar
    38    33    34   ar
    39    33    35    1
    40    34    38    1
    41    36    37   ar
    42     8    39    1
    43    12    40    1
    44    12    41    1
    45    13    42    1
    46    13    43    1
    47    13    44    1
    48    14    45    1
    49    14    46    1
    50    14    47    1
    51    15    48    1
    52    15    49    1
    53    15    50    1
    54    17    51    1
    55    17    52    1
    56    21    53    1
    57    21    54    1
    58    21    55    1
    59    22    56    1
    60    24    57    1
    61    26    58    1
    62    27    59    1
    63    28    60    1
    64    29    61    1
    65    31    62    1
    66    35    63    1
    67    35    64    1
    68    35    65    1
    69    36    66    1
    70    37    67    1
    71    38    68    1
    72    38    69    1
    73    38    70    1
